/*---------------------------------------------------------------------------*\
| =========                 |                                                 |
| \\      /  F ield         | OpenFOAM: The Open Source CFD Toolbox           |
|  \\    /   O peration     | Version:  2206                                  |
|   \\  /    A nd           | Website:  www.openfoam.com                      |
|    \\/     M anipulation  |                                                 |
\*---------------------------------------------------------------------------*/
Build  : _76d719d1e6-20220624 OPENFOAM=2206 version=v2206
Arch   : "LSB;label=32;scalar=64"
Exec   : porousMembraneFoam
Date   : Apr 27 2023
Time   : 09:35:29
Host   : No1
PID    : 611292
I/O    : uncollated
Case   : /home/ubuntu/yao/cases/3_1/3_1_1
nProcs : 1
trapFpe: Floating point exception trapping enabled (FOAM_SIGFPE).
fileModificationChecking : Monitoring run-time modified files using timeStampMaster (fileModificationSkew 5, maxFileModificationPolls 20)
allowSystemOperations : Allowing user-supplied system call operations

// * * * * * * * * * * * * * * * * * * * * * * * * * * * * * * * * * * * * * //
Create time

Create fluid mesh for region shell for time = 0

Create fluid mesh for region tubes for time = 0

2
*** Reading fluid mesh thermophysical properties for region shell

    Adding to thermoFluid

Selecting thermodynamics package 
{
    type            heRhoThermo;
    mixture         multiComponentMixture;
    transport       sutherland;
    thermo          janaf;
    energy          sensibleEnthalpy;
    equationOfState perfectGas;
    specie          specie;
}

    Adding to rhoFluid

    Adding to UFluid

    Adding to phiFluid

    Adding to hRefFluid

    Adding to ghFluid

    Adding to ghfFluid

    Adding to turbulenceFluid

Selecting turbulence model type laminar
Selecting laminar stress model Stokes
    Adding to reactionFluid

Selecting combustion model none
    Adding to radiationFluid

Radiation model not active: radiationProperties not found
Selecting radiationModel none
    Adding to KFluid

    Adding to dpdtFluid

    Adding to fieldsFluid

    Adding to QdotFluid

    Adding MRF

No MRF models present

    Adding fvOptions

Creating finite volume options from "constant/fvOptions"

Selecting finite volume options type explicitPorositySource
    Source: porosityBlockage
    - selecting cells using cellZone shell
    - selected 100 cell(s) with volume 0.006
Porosity region porosityBlockage:
    selecting model: DarcyForchheimer
    creating porous zone: shell
    origin: (0 0 0) e1: (1 0 0) e2: (0 1 0)
    local bounds: (0.1 0.1 0.6)

*** Reading fluid mesh thermophysical properties for region tubes

    Adding to thermoFluid

Selecting thermodynamics package 
{
    type            heRhoThermo;
    mixture         multiComponentMixture;
    transport       sutherland;
    thermo          janaf;
    energy          sensibleEnthalpy;
    equationOfState perfectGas;
    specie          specie;
}

    Adding to rhoFluid

    Adding to UFluid

    Adding to phiFluid

    Adding to hRefFluid

    Adding to ghFluid

    Adding to ghfFluid

    Adding to turbulenceFluid

Selecting turbulence model type laminar
Selecting laminar stress model Stokes
    Adding to reactionFluid

Selecting combustion model none
    Adding to radiationFluid

Radiation model not active: radiationProperties not found
Selecting radiationModel none
    Adding to KFluid

    Adding to dpdtFluid

    Adding to fieldsFluid

    Adding to QdotFluid

    Adding MRF

No MRF models present

    Adding fvOptions

Creating finite volume options from "constant/fvOptions"

Selecting finite volume options type explicitPorositySource
    Source: porosityBlockage
    - selecting cells using cellZone tubes
    - selected 100 cell(s) with volume 0.006
Porosity region porosityBlockage:
    selecting model: DarcyForchheimer
    creating porous zone: tubes
    origin: (0 0 0) e1: (1 0 0) e2: (0 1 0)
    local bounds: (0.1 0.1 0.6)

Region: shell Courant Number mean: 0.00080361686 max: 0.0008115
Region: tubes Courant Number mean: 0 max: 0
deltaT = 0.0001
Region: shell Courant Number mean: 0.00080361686 max: 0.0008115
Region: tubes Courant Number mean: 0 max: 0
deltaT = 0.00012
Time = 0.00012

Pimple Loop = 0


Mapping pressure field 

Solving for region number 0 (shell)
& Species number 0

Mapping Y field 

Qi = Qi [-1 -1 1 0 1 0 0] 3.207e-09

YSu[0] of region 0 = dimensions      [1 -3 -1 0 0 0 0];

internalField   uniform 38.920755;

boundaryField
{
    inlet
    {
        type            calculated;
        value           uniform 0;
    }
    outlet
    {
        type            calculated;
        value           uniform 0;
    }
    wall
    {
        type            empty;
    }
    upAndDown
    {
        type            empty;
    }
}


YSp[0] of region 0 = dimensions      [1 -3 -1 0 0 0 0];

internalField   uniform 1269.1759;

boundaryField
{
    inlet
    {
        type            calculated;
        value           uniform 36.262169;
    }
    outlet
    {
        type            calculated;
        value           uniform 36.262169;
    }
    wall
    {
        type            empty;
    }
    upAndDown
    {
        type            empty;
    }
}


Solving YEqn 
DILUPBiCGStab:  Solving for CO2, Initial residual = 1, Final residual = 1.0197547e-16, No Iterations 1

YEqn solved 

Solving for region number 0 (shell)
& Species number 1

Mapping Y field 

Qi = Qi [-1 -1 1 0 1 0 0] 1.33e-10

YSu[1] of region 0 = dimensions      [1 -3 -1 0 0 0 0];

internalField   uniform 0.69169683;

boundaryField
{
    inlet
    {
        type            calculated;
        value           uniform 0;
    }
    outlet
    {
        type            calculated;
        value           uniform 0;
    }
    wall
    {
        type            empty;
    }
    upAndDown
    {
        type            empty;
    }
}


YSp[1] of region 0 = dimensions      [1 -3 -1 0 0 0 0];

internalField   uniform 52.634985;

boundaryField
{
    inlet
    {
        type            calculated;
        value           uniform 1.5038567;
    }
    outlet
    {
        type            calculated;
        value           uniform 1.5038567;
    }
    wall
    {
        type            empty;
    }
    upAndDown
    {
        type            empty;
    }
}


Solving YEqn 
DILUPBiCGStab:  Solving for CH4, Initial residual = 1, Final residual = 1.617956e-16, No Iterations 1

YEqn solved 

Solving for region number 0 (shell)
& Species number 2
 Smk[0] = dimensions      [1 -3 -1 0 0 0 0];

internalField   nonuniform List<scalar> 
100
(
-296.44127
-296.12531
-296.12531
-296.12531
-296.12531
-296.12531
-296.12531
-296.12531
-296.12531
-296.12531
-296.12531
-296.12531
-296.12531
-296.12531
-296.12531
-296.12531
-296.12531
-296.12531
-296.12531
-296.12531
-296.12531
-296.12531
-296.12531
-296.12531
-296.12531
-296.12531
-296.12531
-296.12531
-296.12531
-296.12531
-296.12531
-296.12531
-296.12531
-296.12531
-296.12531
-296.12531
-296.12531
-296.12531
-296.12531
-296.12531
-296.12531
-296.12531
-296.12531
-296.12531
-296.12531
-296.12531
-296.12531
-296.12531
-296.12531
-296.12531
-296.12531
-296.12531
-296.12531
-296.12531
-296.12531
-296.12531
-296.12531
-296.12531
-296.12531
-296.12531
-296.12531
-296.12531
-296.12531
-296.12531
-296.12531
-296.12531
-296.12531
-296.12531
-296.12531
-296.12531
-296.12531
-296.12531
-296.12531
-296.12531
-296.12531
-296.12531
-296.12531
-296.12531
-296.12531
-296.12531
-296.12531
-296.12531
-296.12531
-296.12531
-296.12531
-296.12531
-296.12531
-296.12531
-296.12531
-296.12531
-296.12531
-296.12531
-296.12531
-296.12531
-296.12531
-296.12531
-296.12531
-296.1253
-296.125
-295.80969
)
;

boundaryField
{
    inlet
    {
        type            calculated;
        value           uniform -9.6354134;
    }
    outlet
    {
        type            calculated;
        value           uniform -9.6015349;
    }
    wall
    {
        type            empty;
    }
    upAndDown
    {
        type            empty;
    }
}

diagonal:  Solving for rho, Initial residual = 0, Final residual = 0, No Iterations 0
DILUPBiCGStab:  Solving for Uz, Initial residual = 1, Final residual = 2.7977249e-17, No Iterations 1
Min/max T:302.9979 303.00207

Solving for fluid region shell
GAMG:  Solving for p_rgh, Initial residual = 1, Final residual = 0.0028513527, No Iterations 3
 Smk[0] = dimensions      [1 -3 -1 0 0 0 0];

internalField   nonuniform List<scalar> 
100
(
-296.44127
-296.12531
-296.12531
-296.12531
-296.12531
-296.12531
-296.12531
-296.12531
-296.12531
-296.12531
-296.12531
-296.12531
-296.12531
-296.12531
-296.12531
-296.12531
-296.12531
-296.12531
-296.12531
-296.12531
-296.12531
-296.12531
-296.12531
-296.12531
-296.12531
-296.12531
-296.12531
-296.12531
-296.12531
-296.12531
-296.12531
-296.12531
-296.12531
-296.12531
-296.12531
-296.12531
-296.12531
-296.12531
-296.12531
-296.12531
-296.12531
-296.12531
-296.12531
-296.12531
-296.12531
-296.12531
-296.12531
-296.12531
-296.12531
-296.12531
-296.12531
-296.12531
-296.12531
-296.12531
-296.12531
-296.12531
-296.12531
-296.12531
-296.12531
-296.12531
-296.12531
-296.12531
-296.12531
-296.12531
-296.12531
-296.12531
-296.12531
-296.12531
-296.12531
-296.12531
-296.12531
-296.12531
-296.12531
-296.12531
-296.12531
-296.12531
-296.12531
-296.12531
-296.12531
-296.12531
-296.12531
-296.12531
-296.12531
-296.12531
-296.12531
-296.12531
-296.12531
-296.12531
-296.12531
-296.12531
-296.12531
-296.12531
-296.12531
-296.12531
-296.12531
-296.12531
-296.12531
-296.1253
-296.125
-295.80969
)
;

boundaryField
{
    inlet
    {
        type            calculated;
        value           uniform -9.6354134;
    }
    outlet
    {
        type            calculated;
        value           uniform -9.6015349;
    }
    wall
    {
        type            empty;
    }
    upAndDown
    {
        type            empty;
    }
}

diagonal:  Solving for rho, Initial residual = 0, Final residual = 0, No Iterations 0
time step continuity errors (shell): sum local = 3.318698e-06, global = 1.4949176e-07, cumulative = 1.4949176e-07
GAMG:  Solving for p_rgh, Initial residual = 0.43765477, Final residual = 0.0014868466, No Iterations 4
 Smk[0] = dimensions      [1 -3 -1 0 0 0 0];

internalField   nonuniform List<scalar> 
100
(
-296.44127
-296.12531
-296.12531
-296.12531
-296.12531
-296.12531
-296.12531
-296.12531
-296.12531
-296.12531
-296.12531
-296.12531
-296.12531
-296.12531
-296.12531
-296.12531
-296.12531
-296.12531
-296.12531
-296.12531
-296.12531
-296.12531
-296.12531
-296.12531
-296.12531
-296.12531
-296.12531
-296.12531
-296.12531
-296.12531
-296.12531
-296.12531
-296.12531
-296.12531
-296.12531
-296.12531
-296.12531
-296.12531
-296.12531
-296.12531
-296.12531
-296.12531
-296.12531
-296.12531
-296.12531
-296.12531
-296.12531
-296.12531
-296.12531
-296.12531
-296.12531
-296.12531
-296.12531
-296.12531
-296.12531
-296.12531
-296.12531
-296.12531
-296.12531
-296.12531
-296.12531
-296.12531
-296.12531
-296.12531
-296.12531
-296.12531
-296.12531
-296.12531
-296.12531
-296.12531
-296.12531
-296.12531
-296.12531
-296.12531
-296.12531
-296.12531
-296.12531
-296.12531
-296.12531
-296.12531
-296.12531
-296.12531
-296.12531
-296.12531
-296.12531
-296.12531
-296.12531
-296.12531
-296.12531
-296.12531
-296.12531
-296.12531
-296.12531
-296.12531
-296.12531
-296.12531
-296.12531
-296.1253
-296.125
-295.80969
)
;

boundaryField
{
    inlet
    {
        type            calculated;
        value           uniform -9.6354134;
    }
    outlet
    {
        type            calculated;
        value           uniform -9.6015349;
    }
    wall
    {
        type            empty;
    }
    upAndDown
    {
        type            empty;
    }
}

diagonal:  Solving for rho, Initial residual = 0, Final residual = 0, No Iterations 0
time step continuity errors (shell): sum local = 1.8782615e-06, global = -5.6108924e-08, cumulative = 9.3382837e-08

Mapping pressure field 

Solving for region number 1 (tubes)
& Species number 0

Mapping Y field 

Qi = Qi [-1 -1 1 0 1 0 0] 3.207e-09

YSu[0] of region 1 = dimensions      [1 -3 -1 0 0 0 0];

internalField   nonuniform List<scalar> 
100
(
295.6829
295.358
295.318
295.28393
295.25497
295.23029
295.20928
295.19139
295.17613
295.16314
295.15204
295.14259
295.13452
295.12764
295.12176
295.11676
295.11247
295.10884
295.10571
295.10307
295.1008
295.09889
295.09724
295.09585
295.09466
295.09366
295.09281
295.09209
295.09148
295.09096
295.09053
295.09016
295.08986
295.0896
295.08939
295.0892
295.08906
295.08893
295.08883
295.08874
295.08868
295.08862
295.08858
295.08853
295.08851
295.08848
295.08846
295.08844
295.08843
295.08842
295.08841
295.0884
295.0884
295.08839
295.08839
295.08838
295.08838
295.08837
295.08837
295.08837
295.08837
295.08836
295.08836
295.08835
295.08835
295.08834
295.08834
295.08832
295.08832
295.0883
295.08829
295.08827
295.08826
295.08823
295.0882
295.08816
295.08811
295.08806
295.08799
295.08791
295.08781
295.08769
295.08756
295.0874
295.08721
295.087
295.08675
295.08646
295.08612
295.08573
295.08527
295.08475
295.08413
295.08341
295.08257
295.08159
295.08045
295.07911
295.07728
294.7985
)
;

boundaryField
{
    inlet
    {
        type            calculated;
        value           uniform 0;
    }
    outlet
    {
        type            calculated;
        value           uniform 0;
    }
    wall
    {
        type            empty;
    }
    upAndDown
    {
        type            empty;
    }
}


YSp[0] of region 1 = dimensions      [1 -3 -1 0 0 0 0];

internalField   uniform 55.60505;

boundaryField
{
    inlet
    {
        type            calculated;
        value           uniform 55.60505;
    }
    outlet
    {
        type            calculated;
        value           uniform 55.60505;
    }
    wall
    {
        type            empty;
    }
    upAndDown
    {
        type            empty;
    }
}


Solving YEqn 
DILUPBiCGStab:  Solving for CO2, Initial residual = 1, Final residual = 6.432726e-17, No Iterations 1

YEqn solved 

Solving for region number 1 (tubes)
& Species number 1

Mapping Y field 

Qi = Qi [-1 -1 1 0 1 0 0] 1.33e-10

YSu[1] of region 1 = dimensions      [1 -3 -1 0 0 0 0];

internalField   nonuniform List<scalar> 
100
(
40.340714
40.296175
40.290718
40.28607
40.282118
40.278752
40.275886
40.273444
40.271363
40.26959
40.268076
40.266787
40.265685
40.264748
40.263945
40.263263
40.262678
40.262181
40.261756
40.261395
40.261086
40.260824
40.2606
40.26041
40.260248
40.260111
40.259995
40.259897
40.259813
40.259743
40.259684
40.259634
40.259592
40.259557
40.259528
40.259503
40.259483
40.259466
40.259453
40.25944
40.259432
40.259423
40.259418
40.259412
40.259408
40.259404
40.259402
40.259399
40.259398
40.259396
40.259395
40.259394
40.259393
40.259392
40.259392
40.259391
40.259391
40.25939
40.25939
40.259389
40.259389
40.259388
40.259388
40.259387
40.259386
40.259385
40.259385
40.259383
40.259382
40.25938
40.259379
40.259376
40.259374
40.25937
40.259366
40.259361
40.259354
40.259347
40.259337
40.259326
40.259313
40.259297
40.259279
40.259257
40.259232
40.259203
40.259168
40.259129
40.259082
40.25903
40.258967
40.258895
40.25881
40.258713
40.258598
40.258465
40.258309
40.258126
40.257875
40.219626
)
;

boundaryField
{
    inlet
    {
        type            calculated;
        value           uniform 0;
    }
    outlet
    {
        type            calculated;
        value           uniform 0;
    }
    wall
    {
        type            empty;
    }
    upAndDown
    {
        type            empty;
    }
}


YSp[1] of region 1 = dimensions      [1 -3 -1 0 0 0 0];

internalField   uniform 2.3060404;

boundaryField
{
    inlet
    {
        type            calculated;
        value           uniform 2.3060404;
    }
    outlet
    {
        type            calculated;
        value           uniform 2.3060404;
    }
    wall
    {
        type            empty;
    }
    upAndDown
    {
        type            empty;
    }
}


Solving YEqn 
DILUPBiCGStab:  Solving for CH4, Initial residual = 1, Final residual = 1.0959708e-16, No Iterations 1

YEqn solved 

Solving for region number 1 (tubes)
& Species number 2
 Smk[1] = dimensions      [1 -3 -1 0 0 0 0];

internalField   nonuniform List<scalar> 
100
(
294.91662
294.54907
294.50385
294.46533
294.43258
294.40468
294.38093
294.36069
294.34345
294.32875
294.31621
294.30553
294.2964
294.28863
294.28197
294.27632
294.27147
294.26736
294.26383
294.26084
294.25828
294.25611
294.25425
294.25268
294.25134
294.25021
294.24924
294.24843
294.24774
294.24715
294.24666
294.24625
294.2459
294.24561
294.24537
294.24517
294.245
294.24486
294.24475
294.24465
294.24457
294.2445
294.24446
294.24441
294.24438
294.24435
294.24433
294.24431
294.24429
294.24428
294.24427
294.24426
294.24426
294.24425
294.24424
294.24424
294.24423
294.24423
294.24423
294.24422
294.24422
294.24421
294.24421
294.2442
294.2442
294.24419
294.24418
294.24417
294.24416
294.24415
294.24414
294.24411
294.24409
294.24406
294.24403
294.24399
294.24393
294.24387
294.24379
294.2437
294.24359
294.24346
294.2433
294.24313
294.24292
294.24268
294.24239
294.24207
294.24168
294.24124
294.24072
294.24013
294.23942
294.23862
294.23767
294.23656
294.23527
294.23375
294.23168
293.91628
)
;

boundaryField
{
    inlet
    {
        type            calculated;
        value           uniform -41.101851;
    }
    outlet
    {
        type            calculated;
        value           uniform -41.106995;
    }
    wall
    {
        type            empty;
    }
    upAndDown
    {
        type            empty;
    }
}

diagonal:  Solving for rho, Initial residual = 0, Final residual = 0, No Iterations 0
DILUPBiCGStab:  Solving for Uz, Initial residual = 0, Final residual = 0, No Iterations 0
Min/max T:303 303.02631

Solving for fluid region tubes
GAMG:  Solving for p_rgh, Initial residual = 1, Final residual = 2.1142498e-11, No Iterations 1
 Smk[1] = dimensions      [1 -3 -1 0 0 0 0];

internalField   nonuniform List<scalar> 
100
(
294.91662
294.54907
294.50385
294.46533
294.43258
294.40468
294.38093
294.36069
294.34345
294.32875
294.31621
294.30553
294.2964
294.28863
294.28197
294.27632
294.27147
294.26736
294.26383
294.26084
294.25828
294.25611
294.25425
294.25268
294.25134
294.25021
294.24924
294.24843
294.24774
294.24715
294.24666
294.24625
294.2459
294.24561
294.24537
294.24517
294.245
294.24486
294.24475
294.24465
294.24457
294.2445
294.24446
294.24441
294.24438
294.24435
294.24433
294.24431
294.24429
294.24428
294.24427
294.24426
294.24426
294.24425
294.24424
294.24424
294.24423
294.24423
294.24423
294.24422
294.24422
294.24421
294.24421
294.2442
294.2442
294.24419
294.24418
294.24417
294.24416
294.24415
294.24414
294.24411
294.24409
294.24406
294.24403
294.24399
294.24393
294.24387
294.24379
294.2437
294.24359
294.24346
294.2433
294.24313
294.24292
294.24268
294.24239
294.24207
294.24168
294.24124
294.24072
294.24013
294.23942
294.23862
294.23767
294.23656
294.23527
294.23375
294.23168
293.91628
)
;

boundaryField
{
    inlet
    {
        type            calculated;
        value           uniform -41.101851;
    }
    outlet
    {
        type            calculated;
        value           uniform -41.106995;
    }
    wall
    {
        type            empty;
    }
    upAndDown
    {
        type            empty;
    }
}

diagonal:  Solving for rho, Initial residual = 0, Final residual = 0, No Iterations 0
time step continuity errors (tubes): sum local = 5.163853e-13, global = -2.5389964e-14, cumulative = -2.5389964e-14
GAMG:  Solving for p_rgh, Initial residual = 0.00020618019, Final residual = 8.1485611e-11, No Iterations 1
 Smk[1] = dimensions      [1 -3 -1 0 0 0 0];

internalField   nonuniform List<scalar> 
100
(
294.91662
294.54907
294.50385
294.46533
294.43258
294.40468
294.38093
294.36069
294.34345
294.32875
294.31621
294.30553
294.2964
294.28863
294.28197
294.27632
294.27147
294.26736
294.26383
294.26084
294.25828
294.25611
294.25425
294.25268
294.25134
294.25021
294.24924
294.24843
294.24774
294.24715
294.24666
294.24625
294.2459
294.24561
294.24537
294.24517
294.245
294.24486
294.24475
294.24465
294.24457
294.2445
294.24446
294.24441
294.24438
294.24435
294.24433
294.24431
294.24429
294.24428
294.24427
294.24426
294.24426
294.24425
294.24424
294.24424
294.24423
294.24423
294.24423
294.24422
294.24422
294.24421
294.24421
294.2442
294.2442
294.24419
294.24418
294.24417
294.24416
294.24415
294.24414
294.24411
294.24409
294.24406
294.24403
294.24399
294.24393
294.24387
294.24379
294.2437
294.24359
294.24346
294.2433
294.24313
294.24292
294.24268
294.24239
294.24207
294.24168
294.24124
294.24072
294.24013
294.23942
294.23862
294.23767
294.23656
294.23527
294.23375
294.23168
293.91628
)
;

boundaryField
{
    inlet
    {
        type            calculated;
        value           uniform -41.101851;
    }
    outlet
    {
        type            calculated;
        value           uniform -41.106995;
    }
    wall
    {
        type            empty;
    }
    upAndDown
    {
        type            empty;
    }
}

diagonal:  Solving for rho, Initial residual = 0, Final residual = 0, No Iterations 0
time step continuity errors (tubes): sum local = 7.3803668e-16, global = -6.2911523e-16, cumulative = -2.6019079e-14
Pimple Loop = 1


Mapping pressure field 

Solving for region number 0 (shell)
& Species number 0

Mapping Y field 

Qi = Qi [-1 -1 1 0 1 0 0] 3.207e-09

YSu[0] of region 0 = dimensions      [1 -3 -1 0 0 0 0];

internalField   nonuniform List<scalar> 
100
(
41.655974
41.652494
41.652054
41.651687
41.651376
41.65111
41.650884
41.650692
41.650528
41.650388
41.650268
41.650167
41.65008
41.650006
41.649943
41.649889
41.649843
41.649804
41.64977
41.649742
41.649717
41.649697
41.649679
41.649664
41.649651
41.64964
41.649631
41.649624
41.649617
41.649611
41.649607
41.649603
41.6496
41.649597
41.649594
41.649593
41.649591
41.64959
41.649589
41.649588
41.649587
41.649586
41.649586
41.649585
41.649585
41.649585
41.649585
41.649584
41.649584
41.649584
41.649584
41.649584
41.649584
41.649584
41.649584
41.649584
41.649584
41.649584
41.649584
41.649584
41.649584
41.649583
41.649583
41.649583
41.649583
41.649583
41.649583
41.649583
41.649583
41.649583
41.649583
41.649583
41.649582
41.649582
41.649582
41.649581
41.649581
41.64958
41.649579
41.649579
41.649578
41.649576
41.649575
41.649573
41.649571
41.649569
41.649566
41.649563
41.649559
41.649555
41.64955
41.649545
41.649538
41.64953
41.649521
41.649511
41.649498
41.649484
41.649455
41.646475
)
;

boundaryField
{
    inlet
    {
        type            calculated;
        value           uniform 0;
    }
    outlet
    {
        type            calculated;
        value           uniform 0;
    }
    wall
    {
        type            empty;
    }
    upAndDown
    {
        type            empty;
    }
}


YSp[0] of region 0 = dimensions      [1 -3 -1 0 0 0 0];

internalField   nonuniform List<scalar> 
100
(
1268.42
1268.6109
1268.4391
1268.2927
1268.1683
1268.0623
1267.9721
1267.8952
1267.8297
1267.7739
1267.7262
1267.6857
1267.651
1267.6215
1267.5962
1267.5747
1267.5563
1267.5407
1267.5273
1267.5159
1267.5062
1267.4979
1267.4909
1267.4849
1267.4798
1267.4755
1267.4718
1267.4687
1267.4661
1267.4639
1267.462
1267.4605
1267.4592
1267.458
1267.4571
1267.4563
1267.4557
1267.4552
1267.4548
1267.4544
1267.4541
1267.4538
1267.4537
1267.4535
1267.4534
1267.4532
1267.4532
1267.4531
1267.453
1267.453
1267.453
1267.4529
1267.4529
1267.4529
1267.4528
1267.4528
1267.4528
1267.4528
1267.4528
1267.4527
1267.4527
1267.4527
1267.4527
1267.4527
1267.4527
1267.4526
1267.4526
1267.4526
1267.4525
1267.4525
1267.4524
1267.4524
1267.4523
1267.4522
1267.452
1267.4519
1267.4517
1267.4514
1267.4511
1267.4508
1267.4504
1267.4499
1267.4493
1267.4486
1267.4478
1267.4469
1267.4458
1267.4446
1267.4431
1267.4414
1267.4395
1267.4372
1267.4345
1267.4315
1267.4279
1267.4237
1267.4187
1267.413
1267.4067
1267.7909
)
;

boundaryField
{
    inlet
    {
        type            calculated;
        value           uniform 1267.6472;
    }
    outlet
    {
        type            calculated;
        value           uniform 1268.5336;
    }
    wall
    {
        type            empty;
    }
    upAndDown
    {
        type            empty;
    }
}


Solving YEqn 
DILUPBiCGStab:  Solving for CO2, Initial residual = 0.98685597, Final residual = 1.108928e-16, No Iterations 1

YEqn solved 

Solving for region number 0 (shell)
& Species number 1

Mapping Y field 

Qi = Qi [-1 -1 1 0 1 0 0] 1.33e-10

YSu[1] of region 0 = dimensions      [1 -3 -1 0 0 0 0];

internalField   nonuniform List<scalar> 
100
(
0.72295817
0.72292032
0.72291547
0.72291147
0.72290808
0.72290519
0.72290273
0.72290063
0.72289885
0.72289732
0.72289602
0.72289492
0.72289397
0.72289317
0.72289248
0.72289189
0.72289139
0.72289096
0.7228906
0.72289029
0.72289002
0.7228898
0.7228896
0.72288944
0.7228893
0.72288919
0.72288909
0.722889
0.72288893
0.72288887
0.72288882
0.72288878
0.72288874
0.72288871
0.72288868
0.72288866
0.72288865
0.72288863
0.72288862
0.72288861
0.7228886
0.72288859
0.72288859
0.72288858
0.72288858
0.72288858
0.72288858
0.72288857
0.72288857
0.72288857
0.72288857
0.72288857
0.72288857
0.72288857
0.72288857
0.72288857
0.72288857
0.72288857
0.72288857
0.72288857
0.72288857
0.72288856
0.72288856
0.72288856
0.72288856
0.72288856
0.72288856
0.72288856
0.72288856
0.72288856
0.72288856
0.72288855
0.72288855
0.72288855
0.72288855
0.72288854
0.72288854
0.72288853
0.72288852
0.72288851
0.7228885
0.72288849
0.72288847
0.72288845
0.72288843
0.72288841
0.72288838
0.72288834
0.7228883
0.72288826
0.7228882
0.72288814
0.72288807
0.72288798
0.72288789
0.72288777
0.72288764
0.72288748
0.7228871
0.72285471
)
;

boundaryField
{
    inlet
    {
        type            calculated;
        value           uniform 0;
    }
    outlet
    {
        type            calculated;
        value           uniform 0;
    }
    wall
    {
        type            empty;
    }
    upAndDown
    {
        type            empty;
    }
}


YSp[1] of region 0 = dimensions      [1 -3 -1 0 0 0 0];

internalField   nonuniform List<scalar> 
100
(
52.603634
52.611551
52.604426
52.598358
52.593198
52.588803
52.585061
52.581873
52.579155
52.576841
52.574864
52.573182
52.571743
52.570519
52.56947
52.56858
52.567816
52.567168
52.566612
52.566142
52.565738
52.565396
52.565103
52.564856
52.564644
52.564466
52.564313
52.564185
52.564076
52.563985
52.563907
52.563842
52.563788
52.563742
52.563704
52.563671
52.563645
52.563623
52.563605
52.56359
52.563578
52.563567
52.56356
52.563552
52.563548
52.563542
52.56354
52.563536
52.563534
52.563532
52.563531
52.563529
52.563528
52.563527
52.563526
52.563525
52.563525
52.563523
52.563523
52.563522
52.563522
52.563521
52.563521
52.563519
52.563519
52.563517
52.563517
52.563515
52.563514
52.563511
52.563509
52.563506
52.563503
52.563498
52.563492
52.563485
52.563477
52.563467
52.563455
52.56344
52.563423
52.563403
52.563378
52.563351
52.563317
52.563279
52.563234
52.563183
52.563122
52.563053
52.562971
52.562878
52.562767
52.56264
52.56249
52.562316
52.562112
52.561874
52.56161
52.577548
)
;

boundaryField
{
    inlet
    {
        type            calculated;
        value           uniform 52.571587;
    }
    outlet
    {
        type            calculated;
        value           uniform 52.608347;
    }
    wall
    {
        type            empty;
    }
    upAndDown
    {
        type            empty;
    }
}


Solving YEqn 
DILUPBiCGStab:  Solving for CH4, Initial residual = 0.9862755, Final residual = 9.4277314e-17, No Iterations 1

YEqn solved 

Solving for region number 0 (shell)
& Species number 2
DILUPBiCGStab:  Solving for Uz, Initial residual = 0.088147137, Final residual = 1.6662737e-17, No Iterations 1
Min/max T:302.99699 303

Solving for fluid region shell
GAMG:  Solving for p_rgh, Initial residual = 0.21753747, Final residual = 0.0021715662, No Iterations 3
 Smk[0] = dimensions      [1 -3 -1 0 0 0 0];

internalField   nonuniform List<scalar> 
100
(
-293.62632
-293.68397
-293.63492
-293.59932
-293.56455
-293.53807
-293.51415
-293.49395
-293.47783
-293.46223
-293.45166
-293.43949
-293.43274
-293.42319
-293.41893
-293.4115
-293.40891
-293.40312
-293.40148
-293.39708
-293.39607
-293.39275
-293.39199
-293.38963
-293.38904
-293.38738
-293.38678
-293.38574
-293.38515
-293.38457
-293.3839
-293.38371
-293.38301
-293.38309
-293.38232
-293.38263
-293.38184
-293.3823
-293.38148
-293.38205
-293.38123
-293.38187
-293.38105
-293.38173
-293.38093
-293.38163
-293.38085
-293.38155
-293.3808
-293.38148
-293.38078
-293.38144
-293.38077
-293.38139
-293.38077
-293.38136
-293.38077
-293.38134
-293.38078
-293.38132
-293.38079
-293.3813
-293.3808
-293.38127
-293.38078
-293.38125
-293.38078
-293.38122
-293.38074
-293.38116
-293.38074
-293.38107
-293.38068
-293.38093
-293.38066
-293.38076
-293.38058
-293.38054
-293.38054
-293.38031
-293.38042
-293.38002
-293.38027
-293.37966
-293.38004
-293.37923
-293.37964
-293.3787
-293.37907
-293.37799
-293.37819
-293.37701
-293.37698
-293.37567
-293.37525
-293.37378
-293.37284
-293.37127
-293.36961
-293.4737
)
;

boundaryField
{
    inlet
    {
        type            calculated;
        value           uniform -336.83327;
    }
    outlet
    {
        type            calculated;
        value           uniform -336.03535;
    }
    wall
    {
        type            empty;
    }
    upAndDown
    {
        type            empty;
    }
}

diagonal:  Solving for rho, Initial residual = 0, Final residual = 0, No Iterations 0
time step continuity errors (shell): sum local = 4.6054733e-06, global = 9.2014305e-07, cumulative = 1.0135259e-06
GAMG:  Solving for p_rgh, Initial residual = 0.0040921145, Final residual = 2.0399941e-05, No Iterations 4
 Smk[0] = dimensions      [1 -3 -1 0 0 0 0];

internalField   nonuniform List<scalar> 
100
(
-293.62632
-293.68397
-293.63492
-293.59932
-293.56455
-293.53807
-293.51415
-293.49395
-293.47783
-293.46223
-293.45166
-293.43949
-293.43274
-293.42319
-293.41893
-293.4115
-293.40891
-293.40312
-293.40148
-293.39708
-293.39607
-293.39275
-293.39199
-293.38963
-293.38904
-293.38738
-293.38678
-293.38574
-293.38515
-293.38457
-293.3839
-293.38371
-293.38301
-293.38309
-293.38232
-293.38263
-293.38184
-293.3823
-293.38148
-293.38205
-293.38123
-293.38187
-293.38105
-293.38173
-293.38093
-293.38163
-293.38085
-293.38155
-293.3808
-293.38148
-293.38078
-293.38144
-293.38077
-293.38139
-293.38077
-293.38136
-293.38077
-293.38134
-293.38078
-293.38132
-293.38079
-293.3813
-293.3808
-293.38127
-293.38078
-293.38125
-293.38078
-293.38122
-293.38074
-293.38116
-293.38074
-293.38107
-293.38068
-293.38093
-293.38066
-293.38076
-293.38058
-293.38054
-293.38054
-293.38031
-293.38042
-293.38002
-293.38027
-293.37966
-293.38004
-293.37923
-293.37964
-293.3787
-293.37907
-293.37799
-293.37819
-293.37701
-293.37698
-293.37567
-293.37525
-293.37378
-293.37284
-293.37127
-293.36961
-293.4737
)
;

boundaryField
{
    inlet
    {
        type            calculated;
        value           uniform -336.83327;
    }
    outlet
    {
        type            calculated;
        value           uniform -336.03535;
    }
    wall
    {
        type            empty;
    }
    upAndDown
    {
        type            empty;
    }
}

diagonal:  Solving for rho, Initial residual = 0, Final residual = 0, No Iterations 0
time step continuity errors (shell): sum local = 2.2589523e-08, global = 2.106084e-09, cumulative = 1.015632e-06

Mapping pressure field 

Solving for region number 1 (tubes)
& Species number 0

Mapping Y field 

Qi = Qi [-1 -1 1 0 1 0 0] 3.207e-09

YSu[0] of region 1 = dimensions      [1 -3 -1 0 0 0 0];

internalField   nonuniform List<scalar> 
100
(
295.68102
295.75182
295.72719
295.71093
295.69252
295.6791
295.66603
295.65469
295.6457
295.63615
295.63021
295.62217
295.6184
295.61169
295.60932
295.60384
295.60242
295.59795
295.59702
295.59352
295.59292
295.59019
295.58967
295.58766
295.5872
295.58575
295.58521
295.58427
295.58371
295.58314
295.58249
295.58226
295.58157
295.58158
295.58082
295.58104
295.58026
295.58061
295.57982
295.58027
295.57949
295.58001
295.57923
295.57979
295.57904
295.57962
295.5789
295.57949
295.5788
295.57938
295.57874
295.5793
295.5787
295.57924
295.57867
295.57919
295.57865
295.57915
295.57865
295.57912
295.57864
295.57909
295.57864
295.57907
295.57863
295.57904
295.57863
295.57901
295.57859
295.57896
295.5786
295.5789
295.57856
295.5788
295.57859
295.5787
295.57859
295.5786
295.57866
295.57853
295.57873
295.57849
295.57885
295.57847
295.579
295.57851
295.57915
295.57864
295.57935
295.57883
295.57954
295.57911
295.57983
295.57953
295.58019
295.58011
295.58073
295.58108
295.58165
295.67305
)
;

boundaryField
{
    inlet
    {
        type            calculated;
        value           uniform 0;
    }
    outlet
    {
        type            calculated;
        value           uniform 0;
    }
    wall
    {
        type            empty;
    }
    upAndDown
    {
        type            empty;
    }
}


YSp[0] of region 1 = dimensions      [1 -3 -1 0 0 0 0];

internalField   nonuniform List<scalar> 
100
(
57.325588
57.323464
57.323187
57.322962
57.322771
57.322608
57.32247
57.322352
57.322251
57.322165
57.322092
57.32203
57.321976
57.321931
57.321892
57.321859
57.321831
57.321807
57.321786
57.321769
57.321754
57.321741
57.32173
57.321721
57.321713
57.321707
57.321701
57.321696
57.321692
57.321689
57.321686
57.321684
57.321682
57.32168
57.321679
57.321677
57.321676
57.321676
57.321675
57.321674
57.321674
57.321674
57.321673
57.321673
57.321673
57.321673
57.321673
57.321672
57.321672
57.321672
57.321672
57.321672
57.321672
57.321672
57.321672
57.321672
57.321672
57.321672
57.321672
57.321672
57.321672
57.321672
57.321672
57.321672
57.321672
57.321672
57.321672
57.321672
57.321672
57.321671
57.321671
57.321671
57.321671
57.321671
57.321671
57.321671
57.32167
57.32167
57.321669
57.321669
57.321668
57.321667
57.321667
57.321666
57.321664
57.321663
57.321661
57.321659
57.321657
57.321655
57.321651
57.321648
57.321644
57.321639
57.321634
57.321627
57.32162
57.321611
57.321586
57.319771
)
;

boundaryField
{
    inlet
    {
        type            calculated;
        value           uniform 57.319771;
    }
    outlet
    {
        type            calculated;
        value           uniform 57.32601;
    }
    wall
    {
        type            empty;
    }
    upAndDown
    {
        type            empty;
    }
}


Solving YEqn 
DILUPBiCGStab:  Solving for CO2, Initial residual = 0.99981491, Final residual = 8.2176781e-17, No Iterations 1

YEqn solved 

Solving for region number 1 (tubes)
& Species number 1

Mapping Y field 

Qi = Qi [-1 -1 1 0 1 0 0] 1.33e-10

YSu[1] of region 1 = dimensions      [1 -3 -1 0 0 0 0];

internalField   nonuniform List<scalar> 
100
(
40.338262
40.347959
40.344566
40.342325
40.33979
40.337941
40.336142
40.334581
40.333344
40.332031
40.331213
40.330109
40.32959
40.328669
40.328342
40.327589
40.327394
40.326781
40.326653
40.326172
40.32609
40.325715
40.325643
40.325368
40.325304
40.325105
40.325032
40.324902
40.324825
40.324748
40.324658
40.324627
40.324532
40.324533
40.32443
40.324459
40.324353
40.324401
40.324292
40.324355
40.324246
40.324318
40.324211
40.324289
40.324186
40.324266
40.324167
40.324247
40.324153
40.324233
40.324145
40.324222
40.324138
40.324213
40.324135
40.324206
40.324133
40.324201
40.324132
40.324197
40.324132
40.324193
40.324131
40.324189
40.324129
40.324186
40.324129
40.324182
40.324125
40.324175
40.324125
40.324166
40.324121
40.324153
40.324123
40.324139
40.324124
40.324126
40.324133
40.324116
40.324142
40.32411
40.324159
40.324107
40.324179
40.324113
40.3242
40.324129
40.324226
40.324156
40.324252
40.324193
40.32429
40.324249
40.324339
40.324327
40.324411
40.324457
40.324534
40.336886
)
;

boundaryField
{
    inlet
    {
        type            calculated;
        value           uniform 0;
    }
    outlet
    {
        type            calculated;
        value           uniform 0;
    }
    wall
    {
        type            empty;
    }
    upAndDown
    {
        type            empty;
    }
}


YSp[1] of region 1 = dimensions      [1 -3 -1 0 0 0 0];

internalField   nonuniform List<scalar> 
100
(
2.3773942
2.3773061
2.3772946
2.3772853
2.3772774
2.3772706
2.3772649
2.37726
2.3772558
2.3772523
2.3772492
2.3772466
2.3772444
2.3772425
2.3772409
2.3772396
2.3772384
2.3772374
2.3772365
2.3772358
2.3772352
2.3772347
2.3772342
2.3772338
2.3772335
2.3772332
2.377233
2.3772328
2.3772326
2.3772325
2.3772324
2.3772323
2.3772322
2.3772321
2.3772321
2.377232
2.377232
2.3772319
2.3772319
2.3772319
2.3772319
2.3772319
2.3772319
2.3772318
2.3772318
2.3772318
2.3772318
2.3772318
2.3772318
2.3772318
2.3772318
2.3772318
2.3772318
2.3772318
2.3772318
2.3772318
2.3772318
2.3772318
2.3772318
2.3772318
2.3772318
2.3772318
2.3772318
2.3772318
2.3772318
2.3772318
2.3772318
2.3772318
2.3772318
2.3772318
2.3772318
2.3772318
2.3772318
2.3772318
2.3772317
2.3772317
2.3772317
2.3772317
2.3772317
2.3772317
2.3772316
2.3772316
2.3772316
2.3772315
2.3772315
2.3772314
2.3772314
2.3772313
2.3772312
2.3772311
2.3772309
2.3772308
2.3772306
2.3772304
2.3772302
2.3772299
2.3772296
2.3772293
2.3772282
2.377153
)
;

boundaryField
{
    inlet
    {
        type            calculated;
        value           uniform 2.377153;
    }
    outlet
    {
        type            calculated;
        value           uniform 2.3774117;
    }
    wall
    {
        type            empty;
    }
    upAndDown
    {
        type            empty;
    }
}


Solving YEqn 
DILUPBiCGStab:  Solving for CH4, Initial residual = 0.99993936, Final residual = 9.6970127e-17, No Iterations 1

YEqn solved 

Solving for region number 1 (tubes)
& Species number 2
DILUPBiCGStab:  Solving for Uz, Initial residual = 0.24510994, Final residual = 6.1185718e-18, No Iterations 1
Min/max T:303 303.02639

Solving for fluid region tubes
GAMG:  Solving for p_rgh, Initial residual = 0.92800938, Final residual = 1.1205927e-08, No Iterations 1
 Smk[1] = dimensions      [1 -3 -1 0 0 0 0];

internalField   nonuniform List<scalar> 
100
(
294.90876
294.98883
294.96096
294.94256
294.92172
294.90652
294.89173
294.8789
294.86873
294.85791
294.85119
294.8421
294.83783
294.83024
294.82756
294.82135
294.81974
294.81469
294.81364
294.80968
294.809
294.80591
294.80532
294.80305
294.80253
294.80088
294.80028
294.79921
294.79858
294.79793
294.7972
294.79694
294.79615
294.79616
294.79531
294.79555
294.79468
294.79507
294.79418
294.79469
294.7938
294.79439
294.79351
294.79415
294.7933
294.79396
294.79314
294.7938
294.79303
294.79369
294.79296
294.79359
294.7929
294.79352
294.79288
294.79346
294.79286
294.79342
294.79285
294.79338
294.79285
294.79335
294.79285
294.79332
294.79283
294.79329
294.79283
294.79326
294.79279
294.79321
294.79279
294.79314
294.79276
294.79303
294.79278
294.79291
294.79278
294.7928
294.79286
294.79272
294.79294
294.79267
294.79308
294.79265
294.79325
294.7927
294.79342
294.79284
294.79364
294.79306
294.79386
294.79337
294.79418
294.79385
294.7946
294.7945
294.79521
294.79559
294.79625
294.89945
)
;

boundaryField
{
    inlet
    {
        type            calculated;
        value           uniform -41.110483;
    }
    outlet
    {
        type            calculated;
        value           uniform -41.11083;
    }
    wall
    {
        type            empty;
    }
    upAndDown
    {
        type            empty;
    }
}

diagonal:  Solving for rho, Initial residual = 0, Final residual = 0, No Iterations 0
time step continuity errors (tubes): sum local = 5.5268011e-13, global = 1.2252986e-14, cumulative = -1.3766093e-14
GAMG:  Solving for p_rgh, Initial residual = 0.00028742569, Final residual = 1.066174e-10, No Iterations 1
 Smk[1] = dimensions      [1 -3 -1 0 0 0 0];

internalField   nonuniform List<scalar> 
100
(
294.90876
294.98883
294.96096
294.94256
294.92172
294.90652
294.89173
294.8789
294.86873
294.85791
294.85119
294.8421
294.83783
294.83024
294.82756
294.82135
294.81974
294.81469
294.81364
294.80968
294.809
294.80591
294.80532
294.80305
294.80253
294.80088
294.80028
294.79921
294.79858
294.79793
294.7972
294.79694
294.79615
294.79616
294.79531
294.79555
294.79468
294.79507
294.79418
294.79469
294.7938
294.79439
294.79351
294.79415
294.7933
294.79396
294.79314
294.7938
294.79303
294.79369
294.79296
294.79359
294.7929
294.79352
294.79288
294.79346
294.79286
294.79342
294.79285
294.79338
294.79285
294.79335
294.79285
294.79332
294.79283
294.79329
294.79283
294.79326
294.79279
294.79321
294.79279
294.79314
294.79276
294.79303
294.79278
294.79291
294.79278
294.7928
294.79286
294.79272
294.79294
294.79267
294.79308
294.79265
294.79325
294.7927
294.79342
294.79284
294.79364
294.79306
294.79386
294.79337
294.79418
294.79385
294.7946
294.7945
294.79521
294.79559
294.79625
294.89945
)
;

boundaryField
{
    inlet
    {
        type            calculated;
        value           uniform -41.110483;
    }
    outlet
    {
        type            calculated;
        value           uniform -41.11083;
    }
    wall
    {
        type            empty;
    }
    upAndDown
    {
        type            empty;
    }
}

diagonal:  Solving for rho, Initial residual = 0, Final residual = 0, No Iterations 0
time step continuity errors (tubes): sum local = 5.8588993e-16, global = 3.5303624e-16, cumulative = -1.3413057e-14
Pimple Loop = 2


Mapping pressure field 

Solving for region number 0 (shell)
& Species number 0

Mapping Y field 

Qi = Qi [-1 -1 1 0 1 0 0] 3.207e-09

YSu[0] of region 0 = dimensions      [1 -3 -1 0 0 0 0];

internalField   nonuniform List<scalar> 
100
(
40.409197
40.411433
40.411363
40.411349
40.411291
40.411265
40.411226
40.41119
40.411167
40.411128
40.411117
40.411077
40.411075
40.411037
40.411039
40.411005
40.41101
40.41098
40.410985
40.410961
40.410965
40.410945
40.410947
40.410933
40.410934
40.410923
40.410922
40.410915
40.410912
40.410908
40.410904
40.410903
40.410897
40.410898
40.410892
40.410895
40.410887
40.410891
40.410884
40.410889
40.410881
40.410887
40.410879
40.410885
40.410877
40.410883
40.410876
40.410882
40.410875
40.410881
40.410874
40.41088
40.410874
40.41088
40.410874
40.410879
40.410874
40.410879
40.410874
40.410879
40.410874
40.410878
40.410874
40.410878
40.410874
40.410878
40.410874
40.410878
40.410873
40.410877
40.410873
40.410877
40.410873
40.410876
40.410874
40.410875
40.410874
40.410875
40.410876
40.410875
40.410877
40.410875
40.410879
40.410876
40.410883
40.410879
40.410886
40.410882
40.410891
40.410888
40.410897
40.410895
40.410905
40.410906
40.410917
40.41092
40.410932
40.410939
40.410957
40.413201
)
;

boundaryField
{
    inlet
    {
        type            calculated;
        value           uniform 0;
    }
    outlet
    {
        type            calculated;
        value           uniform 0;
    }
    wall
    {
        type            empty;
    }
    upAndDown
    {
        type            empty;
    }
}


YSp[0] of region 0 = dimensions      [1 -3 -1 0 0 0 0];

internalField   nonuniform List<scalar> 
100
(
1268.3091
1268.2016
1268.1162
1268.0327
1267.9645
1267.9005
1267.8457
1267.7974
1267.7535
1267.7174
1267.6823
1267.6556
1267.6276
1267.608
1267.5859
1267.5714
1267.5541
1267.5435
1267.5301
1267.5222
1267.5119
1267.506
1267.4983
1267.4937
1267.488
1267.4844
1267.4803
1267.4774
1267.4745
1267.4721
1267.4702
1267.4681
1267.4669
1267.4651
1267.4645
1267.4628
1267.4627
1267.4611
1267.4613
1267.4599
1267.4603
1267.459
1267.4595
1267.4583
1267.4589
1267.4577
1267.4585
1267.4574
1267.4581
1267.4571
1267.4578
1267.4569
1267.4576
1267.4567
1267.4574
1267.4566
1267.4573
1267.4566
1267.4572
1267.4565
1267.4571
1267.4564
1267.457
1267.4564
1267.457
1267.4563
1267.4569
1267.4563
1267.4568
1267.4563
1267.4568
1267.4563
1267.4567
1267.4563
1267.4566
1267.4564
1267.4565
1267.4564
1267.4563
1267.4565
1267.4562
1267.4565
1267.456
1267.4566
1267.4559
1267.4567
1267.4559
1267.4568
1267.4561
1267.4571
1267.4565
1267.4576
1267.4573
1267.4586
1267.4588
1267.4603
1267.4612
1267.463
1267.4651
1267.4693
)
;

boundaryField
{
    inlet
    {
        type            calculated;
        value           uniform 1268.2772;
    }
    outlet
    {
        type            calculated;
        value           uniform 1268.3698;
    }
    wall
    {
        type            empty;
    }
    upAndDown
    {
        type            empty;
    }
}


Solving YEqn 
DILUPBiCGStab:  Solving for CO2, Initial residual = 0.94187624, Final residual = 2.3933246e-16, No Iterations 1

YEqn solved 

Solving for region number 0 (shell)
& Species number 1

Mapping Y field 

Qi = Qi [-1 -1 1 0 1 0 0] 1.33e-10

YSu[1] of region 0 = dimensions      [1 -3 -1 0 0 0 0];

internalField   nonuniform List<scalar> 
100
(
0.70131974
0.70135378
0.70135422
0.70135506
0.70135529
0.70135574
0.70135594
0.70135608
0.70135628
0.70135624
0.70135645
0.7013563
0.70135652
0.70135631
0.70135651
0.70135629
0.70135647
0.70135626
0.7013564
0.70135621
0.70135633
0.70135617
0.70135624
0.70135613
0.70135617
0.70135608
0.70135609
0.70135604
0.70135603
0.701356
0.70135596
0.70135597
0.70135591
0.70135594
0.70135587
0.70135591
0.70135583
0.70135588
0.7013558
0.70135586
0.70135577
0.70135584
0.70135575
0.70135582
0.70135574
0.7013558
0.70135572
0.70135579
0.70135571
0.70135578
0.70135571
0.70135577
0.70135571
0.70135577
0.7013557
0.70135576
0.7013557
0.70135576
0.7013557
0.70135576
0.7013557
0.70135575
0.7013557
0.70135575
0.7013557
0.70135575
0.7013557
0.70135575
0.7013557
0.70135574
0.7013557
0.70135574
0.7013557
0.70135573
0.70135571
0.70135572
0.70135572
0.70135572
0.70135573
0.70135573
0.70135576
0.70135574
0.70135579
0.70135576
0.70135583
0.7013558
0.70135589
0.70135585
0.70135596
0.70135593
0.70135605
0.70135604
0.70135617
0.7013562
0.70135634
0.70135641
0.70135657
0.70135668
0.70135694
0.70138969
)
;

boundaryField
{
    inlet
    {
        type            calculated;
        value           uniform 0;
    }
    outlet
    {
        type            calculated;
        value           uniform 0;
    }
    wall
    {
        type            empty;
    }
    upAndDown
    {
        type            empty;
    }
}


YSp[1] of region 0 = dimensions      [1 -3 -1 0 0 0 0];

internalField   nonuniform List<scalar> 
100
(
52.599037
52.594579
52.591035
52.587572
52.584747
52.582089
52.57982
52.577815
52.575997
52.574498
52.573043
52.571934
52.570775
52.569959
52.569045
52.568445
52.567726
52.567286
52.566731
52.566403
52.565976
52.565732
52.565411
52.565222
52.564983
52.564836
52.564666
52.564545
52.564425
52.564324
52.564246
52.564159
52.564111
52.564034
52.564011
52.563941
52.563935
52.56387
52.563878
52.563818
52.563835
52.563779
52.563803
52.563751
52.563778
52.563729
52.563759
52.563714
52.563744
52.563702
52.563733
52.563694
52.563724
52.563688
52.563717
52.563683
52.563712
52.56368
52.563707
52.563677
52.563703
52.563675
52.563699
52.563673
52.563697
52.563671
52.563694
52.56367
52.563692
52.563669
52.563688
52.563668
52.563686
52.56367
52.56368
52.563672
52.563677
52.563674
52.563669
52.563676
52.563664
52.563678
52.563657
52.563681
52.563653
52.563685
52.563653
52.563691
52.563659
52.563702
52.563678
52.563725
52.563712
52.563766
52.563773
52.563837
52.563874
52.563947
52.564036
52.564209
)
;

boundaryField
{
    inlet
    {
        type            calculated;
        value           uniform 52.597714;
    }
    outlet
    {
        type            calculated;
        value           uniform 52.601553;
    }
    wall
    {
        type            empty;
    }
    upAndDown
    {
        type            empty;
    }
}


Solving YEqn 
DILUPBiCGStab:  Solving for CH4, Initial residual = 0.8677394, Final residual = 1.6499229e-16, No Iterations 1

YEqn solved 

Solving for region number 0 (shell)
& Species number 2
DILUPBiCGStab:  Solving for Uz, Initial residual = 0.019512236, Final residual = 3.5688319e-18, No Iterations 1
Min/max T:302.99702 303

Solving for fluid region shell
GAMG:  Solving for p_rgh, Initial residual = 0.010835943, Final residual = 6.8374457e-05, No Iterations 4
 Smk[0] = dimensions      [1 -3 -1 0 0 0 0];

internalField   nonuniform List<scalar> 
100
(
-294.8576
-294.82705
-294.80457
-294.7825
-294.76457
-294.74767
-294.73323
-294.72052
-294.70893
-294.69945
-294.69015
-294.68316
-294.67574
-294.67062
-294.66476
-294.661
-294.65639
-294.65364
-294.65008
-294.64803
-294.6453
-294.64376
-294.64173
-294.64053
-294.63903
-294.63809
-294.63702
-294.63624
-294.6355
-294.63485
-294.63438
-294.6338
-294.63352
-294.63302
-294.63289
-294.63243
-294.63241
-294.63199
-294.63205
-294.63166
-294.63178
-294.63142
-294.63158
-294.63124
-294.63142
-294.6311
-294.6313
-294.63101
-294.63121
-294.63093
-294.63113
-294.63088
-294.63108
-294.63084
-294.63103
-294.63081
-294.63099
-294.63079
-294.63096
-294.63078
-294.63094
-294.63076
-294.63092
-294.63075
-294.6309
-294.63074
-294.63088
-294.63073
-294.63087
-294.63072
-294.63084
-294.63072
-294.63083
-294.63073
-294.6308
-294.63074
-294.63077
-294.63075
-294.63073
-294.63076
-294.63069
-294.63077
-294.63065
-294.63079
-294.63061
-294.63082
-294.63061
-294.63085
-294.63064
-294.63092
-294.63076
-294.63106
-294.63096
-294.6313
-294.63134
-294.63173
-294.63196
-294.63241
-294.63296
-294.63297
)
;

boundaryField
{
    inlet
    {
        type            calculated;
        value           uniform -337.00067;
    }
    outlet
    {
        type            calculated;
        value           uniform -335.98419;
    }
    wall
    {
        type            empty;
    }
    upAndDown
    {
        type            empty;
    }
}

diagonal:  Solving for rho, Initial residual = 0, Final residual = 0, No Iterations 0
time step continuity errors (shell): sum local = 7.6268148e-08, global = -3.3560964e-08, cumulative = 9.8207101e-07
GAMG:  Solving for p_rgh, Initial residual = 6.8118743e-05, Final residual = 4.9644449e-07, No Iterations 4
 Smk[0] = dimensions      [1 -3 -1 0 0 0 0];

internalField   nonuniform List<scalar> 
100
(
-294.8576
-294.82705
-294.80457
-294.7825
-294.76457
-294.74767
-294.73323
-294.72052
-294.70893
-294.69945
-294.69015
-294.68316
-294.67574
-294.67062
-294.66476
-294.661
-294.65639
-294.65364
-294.65008
-294.64803
-294.6453
-294.64376
-294.64173
-294.64053
-294.63903
-294.63809
-294.63702
-294.63624
-294.6355
-294.63485
-294.63438
-294.6338
-294.63352
-294.63302
-294.63289
-294.63243
-294.63241
-294.63199
-294.63205
-294.63166
-294.63178
-294.63142
-294.63158
-294.63124
-294.63142
-294.6311
-294.6313
-294.63101
-294.63121
-294.63093
-294.63113
-294.63088
-294.63108
-294.63084
-294.63103
-294.63081
-294.63099
-294.63079
-294.63096
-294.63078
-294.63094
-294.63076
-294.63092
-294.63075
-294.6309
-294.63074
-294.63088
-294.63073
-294.63087
-294.63072
-294.63084
-294.63072
-294.63083
-294.63073
-294.6308
-294.63074
-294.63077
-294.63075
-294.63073
-294.63076
-294.63069
-294.63077
-294.63065
-294.63079
-294.63061
-294.63082
-294.63061
-294.63085
-294.63064
-294.63092
-294.63076
-294.63106
-294.63096
-294.6313
-294.63134
-294.63173
-294.63196
-294.63241
-294.63296
-294.63297
)
;

boundaryField
{
    inlet
    {
        type            calculated;
        value           uniform -337.00067;
    }
    outlet
    {
        type            calculated;
        value           uniform -335.98419;
    }
    wall
    {
        type            empty;
    }
    upAndDown
    {
        type            empty;
    }
}

diagonal:  Solving for rho, Initial residual = 0, Final residual = 0, No Iterations 0
time step continuity errors (shell): sum local = 5.5502666e-10, global = -1.5561512e-10, cumulative = 9.8191539e-07

Mapping pressure field 

Solving for region number 1 (tubes)
& Species number 0

Mapping Y field 

Qi = Qi [-1 -1 1 0 1 0 0] 3.207e-09

YSu[0] of region 1 = dimensions      [1 -3 -1 0 0 0 0];

internalField   nonuniform List<scalar> 
100
(
295.63421
295.60765
295.5866
295.56643
295.55019
295.53513
295.5224
295.51129
295.50123
295.49307
295.4851
295.47914
295.47281
295.46848
295.4635
295.46032
295.45641
295.45409
295.45108
295.44935
295.44703
295.44573
295.444
295.44299
295.4417
295.44091
295.44
295.43934
295.43871
295.43815
295.43775
295.43726
295.43703
295.43659
295.43649
295.4361
295.43609
295.43572
295.43578
295.43545
295.43555
295.43524
295.43538
295.43509
295.43525
295.43498
295.43514
295.43489
295.43506
295.43483
295.435
295.43478
295.43495
295.43475
295.43491
295.43473
295.43488
295.43471
295.43485
295.43469
295.43483
295.43468
295.43482
295.43467
295.43481
295.43467
295.4348
295.43467
295.4348
295.43468
295.43479
295.43469
295.4348
295.43472
295.43479
295.43475
295.43479
295.43478
295.43477
295.43482
295.43476
295.43485
295.43475
295.43489
295.43474
295.43492
295.43475
295.43495
295.43477
295.435
295.43484
295.43506
295.43493
295.43515
295.43508
295.43528
295.43528
295.43541
295.43556
295.43744
)
;

boundaryField
{
    inlet
    {
        type            calculated;
        value           uniform 0;
    }
    outlet
    {
        type            calculated;
        value           uniform 0;
    }
    wall
    {
        type            empty;
    }
    upAndDown
    {
        type            empty;
    }
}


YSp[0] of region 1 = dimensions      [1 -3 -1 0 0 0 0];

internalField   nonuniform List<scalar> 
100
(
57.325574
57.326027
57.325867
57.325755
57.325634
57.325544
57.325458
57.325383
57.325323
57.32526
57.325221
57.325168
57.325143
57.325099
57.325083
57.325047
57.325037
57.325008
57.325001
57.324978
57.324974
57.324956
57.324953
57.32494
57.324937
57.324927
57.324923
57.324917
57.324914
57.32491
57.324905
57.324904
57.324899
57.324899
57.324895
57.324896
57.324891
57.324893
57.324888
57.324891
57.324886
57.324889
57.324884
57.324888
57.324883
57.324887
57.324882
57.324886
57.324881
57.324885
57.324881
57.324884
57.324881
57.324884
57.32488
57.324884
57.32488
57.324883
57.32488
57.324883
57.32488
57.324883
57.32488
57.324883
57.32488
57.324883
57.32488
57.324882
57.32488
57.324882
57.32488
57.324882
57.32488
57.324881
57.32488
57.32488
57.32488
57.32488
57.32488
57.324879
57.324881
57.324879
57.324881
57.324879
57.324882
57.324879
57.324883
57.32488
57.324885
57.324881
57.324886
57.324883
57.324888
57.324886
57.32489
57.32489
57.324894
57.324893
57.3249
57.325499
)
;

boundaryField
{
    inlet
    {
        type            calculated;
        value           uniform 57.325499;
    }
    outlet
    {
        type            calculated;
        value           uniform 57.325828;
    }
    wall
    {
        type            empty;
    }
    upAndDown
    {
        type            empty;
    }
}


Solving YEqn 
DILUPBiCGStab:  Solving for CO2, Initial residual = 0.98046773, Final residual = 8.8983989e-17, No Iterations 1

YEqn solved 

Solving for region number 1 (tubes)
& Species number 1

Mapping Y field 

Qi = Qi [-1 -1 1 0 1 0 0] 1.33e-10

YSu[1] of region 1 = dimensions      [1 -3 -1 0 0 0 0];

internalField   nonuniform List<scalar> 
100
(
40.332835
40.32919
40.326304
40.323537
40.32131
40.319244
40.317497
40.315973
40.314593
40.313474
40.31238
40.311562
40.310694
40.310099
40.309416
40.30898
40.308443
40.308125
40.307711
40.307474
40.307156
40.306977
40.30674
40.306601
40.306425
40.306316
40.306191
40.3061
40.306014
40.305938
40.305883
40.305816
40.305783
40.305724
40.30571
40.305656
40.305654
40.305604
40.305613
40.305566
40.305581
40.305538
40.305557
40.305517
40.305539
40.305502
40.305525
40.30549
40.305514
40.305482
40.305505
40.305476
40.305499
40.305471
40.305493
40.305468
40.305489
40.305465
40.305485
40.305463
40.305482
40.305461
40.30548
40.30546
40.305479
40.30546
40.305477
40.30546
40.305478
40.305461
40.305477
40.305463
40.305477
40.305466
40.305476
40.305471
40.305476
40.305475
40.305474
40.30548
40.305473
40.305484
40.305471
40.305489
40.305469
40.305494
40.305471
40.305499
40.305474
40.305505
40.305483
40.305514
40.305496
40.305526
40.305516
40.305544
40.305544
40.305563
40.305582
40.305651
)
;

boundaryField
{
    inlet
    {
        type            calculated;
        value           uniform 0;
    }
    outlet
    {
        type            calculated;
        value           uniform 0;
    }
    wall
    {
        type            empty;
    }
    upAndDown
    {
        type            empty;
    }
}


YSp[1] of region 1 = dimensions      [1 -3 -1 0 0 0 0];

internalField   nonuniform List<scalar> 
100
(
2.3773936
2.3774124
2.3774058
2.3774011
2.3773961
2.3773924
2.3773888
2.3773857
2.3773832
2.3773806
2.377379
2.3773768
2.3773757
2.3773739
2.3773732
2.3773718
2.3773713
2.3773701
2.3773699
2.3773689
2.3773687
2.377368
2.3773679
2.3773673
2.3773672
2.3773668
2.3773666
2.3773664
2.3773662
2.3773661
2.3773659
2.3773658
2.3773656
2.3773656
2.3773654
2.3773655
2.3773653
2.3773654
2.3773652
2.3773653
2.3773651
2.3773652
2.377365
2.3773652
2.377365
2.3773651
2.3773649
2.3773651
2.3773649
2.377365
2.3773649
2.377365
2.3773649
2.377365
2.3773649
2.377365
2.3773648
2.377365
2.3773648
2.377365
2.3773648
2.377365
2.3773648
2.377365
2.3773648
2.377365
2.3773648
2.3773649
2.3773648
2.3773649
2.3773648
2.3773649
2.3773648
2.3773649
2.3773648
2.3773649
2.3773648
2.3773648
2.3773648
2.3773648
2.3773649
2.3773648
2.3773649
2.3773648
2.3773649
2.3773648
2.377365
2.3773648
2.377365
2.3773649
2.3773651
2.377365
2.3773652
2.3773651
2.3773653
2.3773652
2.3773654
2.3773654
2.3773657
2.3773905
)
;

boundaryField
{
    inlet
    {
        type            calculated;
        value           uniform 2.3773905;
    }
    outlet
    {
        type            calculated;
        value           uniform 2.3774041;
    }
    wall
    {
        type            empty;
    }
    upAndDown
    {
        type            empty;
    }
}


Solving YEqn 
DILUPBiCGStab:  Solving for CH4, Initial residual = 0.9470827, Final residual = 1.567917e-16, No Iterations 1

YEqn solved 

Solving for region number 1 (tubes)
& Species number 2
DILUPBiCGStab:  Solving for Uz, Initial residual = 0.084408161, Final residual = 5.380409e-18, No Iterations 1
Min/max T:303 303.0264

Solving for fluid region tubes
GAMG:  Solving for p_rgh, Initial residual = 0.81035627, Final residual = 1.1001331e-08, No Iterations 1
 Smk[1] = dimensions      [1 -3 -1 0 0 0 0];

internalField   nonuniform List<scalar> 
100
(
294.85677
294.82673
294.80291
294.78009
294.76172
294.74469
294.73028
294.71771
294.70634
294.6971
294.68808
294.68134
294.67418
294.66927
294.66364
294.66005
294.65563
294.653
294.64959
294.64763
294.64501
294.64354
294.64158
294.64044
294.63899
294.63808
294.63706
294.63631
294.63559
294.63497
294.63451
294.63396
294.63369
294.6332
294.63309
294.63264
294.63263
294.63222
294.63229
294.6319
294.63203
294.63167
294.63183
294.6315
294.63168
294.63137
294.63156
294.63128
294.63147
294.63121
294.6314
294.63116
294.63135
294.63112
294.6313
294.63109
294.63126
294.63107
294.63123
294.63105
294.63121
294.63104
294.63119
294.63103
294.63118
294.63103
294.63117
294.63103
294.63117
294.63103
294.63116
294.63105
294.63117
294.63108
294.63116
294.63112
294.63116
294.63116
294.63114
294.63119
294.63113
294.63123
294.63112
294.63127
294.63111
294.63131
294.63112
294.63135
294.63114
294.6314
294.63122
294.63147
294.63132
294.63157
294.63149
294.63172
294.63172
294.63187
294.63203
294.63397
)
;

boundaryField
{
    inlet
    {
        type            calculated;
        value           uniform -41.109118;
    }
    outlet
    {
        type            calculated;
        value           uniform -41.11046;
    }
    wall
    {
        type            empty;
    }
    upAndDown
    {
        type            empty;
    }
}

diagonal:  Solving for rho, Initial residual = 0, Final residual = 0, No Iterations 0
time step continuity errors (tubes): sum local = 1.387981e-13, global = -2.1670772e-15, cumulative = -1.5580134e-14
GAMG:  Solving for p_rgh, Initial residual = 2.0618458e-06, Final residual = 4.4634474e-13, No Iterations 1
 Smk[1] = dimensions      [1 -3 -1 0 0 0 0];

internalField   nonuniform List<scalar> 
100
(
294.85677
294.82673
294.80291
294.78009
294.76172
294.74469
294.73028
294.71771
294.70634
294.6971
294.68808
294.68134
294.67418
294.66927
294.66364
294.66005
294.65563
294.653
294.64959
294.64763
294.64501
294.64354
294.64158
294.64044
294.63899
294.63808
294.63706
294.63631
294.63559
294.63497
294.63451
294.63396
294.63369
294.6332
294.63309
294.63264
294.63263
294.63222
294.63229
294.6319
294.63203
294.63167
294.63183
294.6315
294.63168
294.63137
294.63156
294.63128
294.63147
294.63121
294.6314
294.63116
294.63135
294.63112
294.6313
294.63109
294.63126
294.63107
294.63123
294.63105
294.63121
294.63104
294.63119
294.63103
294.63118
294.63103
294.63117
294.63103
294.63117
294.63103
294.63116
294.63105
294.63117
294.63108
294.63116
294.63112
294.63116
294.63116
294.63114
294.63119
294.63113
294.63123
294.63112
294.63127
294.63111
294.63131
294.63112
294.63135
294.63114
294.6314
294.63122
294.63147
294.63132
294.63157
294.63149
294.63172
294.63172
294.63187
294.63203
294.63397
)
;

boundaryField
{
    inlet
    {
        type            calculated;
        value           uniform -41.109118;
    }
    outlet
    {
        type            calculated;
        value           uniform -41.11046;
    }
    wall
    {
        type            empty;
    }
    upAndDown
    {
        type            empty;
    }
}

diagonal:  Solving for rho, Initial residual = 0, Final residual = 0, No Iterations 0
time step continuity errors (tubes): sum local = 1.7464314e-16, global = -1.1455088e-16, cumulative = -1.5694685e-14
Pimple Loop = 3


Mapping pressure field 

Solving for region number 0 (shell)
& Species number 0

Mapping Y field 

Qi = Qi [-1 -1 1 0 1 0 0] 3.207e-09

YSu[0] of region 0 = dimensions      [1 -3 -1 0 0 0 0];

internalField   nonuniform List<scalar> 
100
(
40.408741
40.408138
40.408032
40.407895
40.407811
40.407716
40.407644
40.40758
40.407517
40.407476
40.407421
40.407395
40.407347
40.407333
40.407292
40.407284
40.40725
40.407246
40.407219
40.407217
40.407196
40.407195
40.40718
40.407178
40.407167
40.407165
40.407158
40.407156
40.407152
40.407149
40.407148
40.407144
40.407144
40.40714
40.407142
40.407137
40.40714
40.407135
40.407139
40.407134
40.407139
40.407133
40.407138
40.407132
40.407137
40.407132
40.407137
40.407132
40.407137
40.407131
40.407136
40.407131
40.407136
40.407131
40.407136
40.407131
40.407135
40.407131
40.407135
40.407131
40.407135
40.407131
40.407135
40.407131
40.407135
40.407131
40.407135
40.407132
40.407135
40.407132
40.407135
40.407132
40.407135
40.407133
40.407135
40.407134
40.407135
40.407135
40.407134
40.407135
40.407134
40.407136
40.407133
40.407136
40.407132
40.407136
40.407132
40.407136
40.407131
40.407136
40.407131
40.407135
40.407131
40.407134
40.40713
40.407133
40.40713
40.407128
40.407127
40.406729
)
;

boundaryField
{
    inlet
    {
        type            calculated;
        value           uniform 0;
    }
    outlet
    {
        type            calculated;
        value           uniform 0;
    }
    wall
    {
        type            empty;
    }
    upAndDown
    {
        type            empty;
    }
}


YSp[0] of region 0 = dimensions      [1 -3 -1 0 0 0 0];

internalField   nonuniform List<scalar> 
100
(
1268.3043
1268.1943
1268.0984
1268.0149
1267.9422
1267.8789
1267.8238
1267.7757
1267.7338
1267.6973
1267.6655
1267.6377
1267.6136
1267.5924
1267.5741
1267.558
1267.5441
1267.5319
1267.5213
1267.512
1267.504
1267.4969
1267.4908
1267.4855
1267.4808
1267.4768
1267.4732
1267.4702
1267.4675
1267.4651
1267.4631
1267.4614
1267.4598
1267.4585
1267.4573
1267.4563
1267.4554
1267.4546
1267.454
1267.4534
1267.4529
1267.4524
1267.4521
1267.4517
1267.4514
1267.4512
1267.451
1267.4508
1267.4506
1267.4505
1267.4503
1267.4502
1267.4501
1267.4501
1267.45
1267.4499
1267.4499
1267.4498
1267.4498
1267.4497
1267.4497
1267.4497
1267.4497
1267.4496
1267.4496
1267.4496
1267.4496
1267.4496
1267.4496
1267.4496
1267.4496
1267.4496
1267.4496
1267.4496
1267.4496
1267.4496
1267.4496
1267.4496
1267.4497
1267.4497
1267.4497
1267.4498
1267.4498
1267.4499
1267.45
1267.4501
1267.4502
1267.4503
1267.4504
1267.4506
1267.4508
1267.4511
1267.4513
1267.4516
1267.452
1267.4524
1267.4529
1267.4534
1267.454
1267.4553
)
;

boundaryField
{
    inlet
    {
        type            calculated;
        value           uniform 1268.2603;
    }
    outlet
    {
        type            calculated;
        value           uniform 1268.369;
    }
    wall
    {
        type            empty;
    }
    upAndDown
    {
        type            empty;
    }
}


Solving YEqn 
DILUPBiCGStab:  Solving for CO2, Initial residual = 0.9485778, Final residual = 1.9500723e-16, No Iterations 1

YEqn solved 

Solving for region number 0 (shell)
& Species number 1

Mapping Y field 

Qi = Qi [-1 -1 1 0 1 0 0] 1.33e-10

YSu[1] of region 0 = dimensions      [1 -3 -1 0 0 0 0];

internalField   nonuniform List<scalar> 
100
(
0.70131521
0.70130654
0.7013061
0.70130509
0.70130472
0.70130409
0.70130369
0.70130334
0.70130292
0.70130276
0.70130233
0.70130229
0.70130188
0.70130192
0.70130155
0.70130163
0.7013013
0.70130139
0.70130112
0.70130121
0.70130099
0.70130106
0.70130091
0.70130096
0.70130085
0.70130087
0.70130081
0.70130081
0.70130079
0.70130077
0.70130078
0.70130074
0.70130077
0.70130072
0.70130077
0.70130071
0.70130077
0.7013007
0.70130077
0.70130069
0.70130077
0.70130069
0.70130077
0.70130069
0.70130077
0.70130069
0.70130077
0.70130069
0.70130077
0.70130069
0.70130076
0.7013007
0.70130076
0.7013007
0.70130076
0.7013007
0.70130076
0.7013007
0.70130075
0.7013007
0.70130075
0.7013007
0.70130075
0.7013007
0.70130075
0.7013007
0.70130075
0.70130071
0.70130075
0.70130071
0.70130075
0.70130072
0.70130076
0.70130073
0.70130075
0.70130074
0.70130075
0.70130075
0.70130075
0.70130076
0.70130074
0.70130077
0.70130073
0.70130077
0.70130071
0.70130077
0.7013007
0.70130077
0.70130069
0.70130076
0.70130068
0.70130074
0.70130067
0.70130072
0.70130066
0.70130069
0.70130064
0.7013006
0.70130057
0.70129348
)
;

boundaryField
{
    inlet
    {
        type            calculated;
        value           uniform 0;
    }
    outlet
    {
        type            calculated;
        value           uniform 0;
    }
    wall
    {
        type            empty;
    }
    upAndDown
    {
        type            empty;
    }
}


YSp[1] of region 0 = dimensions      [1 -3 -1 0 0 0 0];

internalField   nonuniform List<scalar> 
100
(
52.598836
52.594275
52.590298
52.586837
52.583822
52.581196
52.578909
52.576915
52.575179
52.573664
52.572346
52.571193
52.570192
52.569316
52.568555
52.567889
52.567311
52.566805
52.566365
52.565981
52.565646
52.565355
52.5651
52.564879
52.564685
52.564518
52.564371
52.564244
52.564132
52.564036
52.563951
52.563879
52.563814
52.563759
52.56371
52.563669
52.563632
52.563601
52.563572
52.563549
52.563527
52.563509
52.563493
52.56348
52.563468
52.563457
52.563448
52.56344
52.563434
52.563428
52.563422
52.563418
52.563414
52.56341
52.563408
52.563405
52.563403
52.563401
52.563399
52.563397
52.563396
52.563395
52.563394
52.563393
52.563393
52.563392
52.563392
52.563391
52.563391
52.563391
52.563391
52.563391
52.563391
52.563391
52.563391
52.563392
52.563392
52.563393
52.563394
52.563395
52.563397
52.563399
52.563401
52.563404
52.563407
52.563411
52.563415
52.563421
52.563426
52.563434
52.563442
52.563452
52.563463
52.563476
52.563491
52.563508
52.563527
52.563548
52.563573
52.563629
)
;

boundaryField
{
    inlet
    {
        type            calculated;
        value           uniform 52.597015;
    }
    outlet
    {
        type            calculated;
        value           uniform 52.601519;
    }
    wall
    {
        type            empty;
    }
    upAndDown
    {
        type            empty;
    }
}


Solving YEqn 
DILUPBiCGStab:  Solving for CH4, Initial residual = 0.97317098, Final residual = 2.4525219e-16, No Iterations 1

YEqn solved 

Solving for region number 0 (shell)
& Species number 2
DILUPBiCGStab:  Solving for Uz, Initial residual = 0.0033824913, Final residual = 2.1139341e-19, No Iterations 1
Min/max T:302.997 303

Solving for fluid region shell
GAMG:  Solving for p_rgh, Initial residual = 0.0015048314, Final residual = 4.1511666e-06, No Iterations 4
 Smk[0] = dimensions      [1 -3 -1 0 0 0 0];

internalField   nonuniform List<scalar> 
100
(
-294.85862
-294.8302
-294.805
-294.78311
-294.76401
-294.74739
-294.73291
-294.72028
-294.7093
-294.69969
-294.69136
-294.68405
-294.67773
-294.67216
-294.66736
-294.66313
-294.65948
-294.65626
-294.65349
-294.65105
-294.64894
-294.64709
-294.64548
-294.64408
-294.64285
-294.64179
-294.64086
-294.64006
-294.63935
-294.63874
-294.6382
-294.63774
-294.63733
-294.63699
-294.63667
-294.63642
-294.63617
-294.63598
-294.6358
-294.63565
-294.63551
-294.6354
-294.6353
-294.63522
-294.63513
-294.63507
-294.63501
-294.63497
-294.63492
-294.63488
-294.63485
-294.63482
-294.63479
-294.63477
-294.63475
-294.63474
-294.63472
-294.63471
-294.6347
-294.63469
-294.63468
-294.63468
-294.63467
-294.63467
-294.63466
-294.63466
-294.63465
-294.63465
-294.63465
-294.63465
-294.63465
-294.63465
-294.63465
-294.63465
-294.63465
-294.63465
-294.63466
-294.63466
-294.63467
-294.63468
-294.63469
-294.6347
-294.63471
-294.63473
-294.63475
-294.63477
-294.6348
-294.63483
-294.63488
-294.63492
-294.63498
-294.63504
-294.63511
-294.63519
-294.63529
-294.63539
-294.63552
-294.63565
-294.63582
-294.63758
)
;

boundaryField
{
    inlet
    {
        type            calculated;
        value           uniform -336.99619;
    }
    outlet
    {
        type            calculated;
        value           uniform -335.98582;
    }
    wall
    {
        type            empty;
    }
    upAndDown
    {
        type            empty;
    }
}

diagonal:  Solving for rho, Initial residual = 0, Final residual = 0, No Iterations 0
time step continuity errors (shell): sum local = 4.6350539e-09, global = -1.0752459e-09, cumulative = 9.8084015e-07
GAMG:  Solving for p_rgh, Initial residual = 4.0897168e-06, Final residual = 7.9130297e-08, No Iterations 3
 Smk[0] = dimensions      [1 -3 -1 0 0 0 0];

internalField   nonuniform List<scalar> 
100
(
-294.85862
-294.8302
-294.805
-294.78311
-294.76401
-294.74739
-294.73291
-294.72028
-294.7093
-294.69969
-294.69136
-294.68405
-294.67773
-294.67216
-294.66736
-294.66313
-294.65948
-294.65626
-294.65349
-294.65105
-294.64894
-294.64709
-294.64548
-294.64408
-294.64285
-294.64179
-294.64086
-294.64006
-294.63935
-294.63874
-294.6382
-294.63774
-294.63733
-294.63699
-294.63667
-294.63642
-294.63617
-294.63598
-294.6358
-294.63565
-294.63551
-294.6354
-294.6353
-294.63522
-294.63513
-294.63507
-294.63501
-294.63497
-294.63492
-294.63488
-294.63485
-294.63482
-294.63479
-294.63477
-294.63475
-294.63474
-294.63472
-294.63471
-294.6347
-294.63469
-294.63468
-294.63468
-294.63467
-294.63467
-294.63466
-294.63466
-294.63465
-294.63465
-294.63465
-294.63465
-294.63465
-294.63465
-294.63465
-294.63465
-294.63465
-294.63465
-294.63466
-294.63466
-294.63467
-294.63468
-294.63469
-294.6347
-294.63471
-294.63473
-294.63475
-294.63477
-294.6348
-294.63483
-294.63488
-294.63492
-294.63498
-294.63504
-294.63511
-294.63519
-294.63529
-294.63539
-294.63552
-294.63565
-294.63582
-294.63758
)
;

boundaryField
{
    inlet
    {
        type            calculated;
        value           uniform -336.99619;
    }
    outlet
    {
        type            calculated;
        value           uniform -335.98582;
    }
    wall
    {
        type            empty;
    }
    upAndDown
    {
        type            empty;
    }
}

diagonal:  Solving for rho, Initial residual = 0, Final residual = 0, No Iterations 0
time step continuity errors (shell): sum local = 8.8236594e-11, global = -6.0640024e-12, cumulative = 9.8083408e-07

Mapping pressure field 

Solving for region number 1 (tubes)
& Species number 0

Mapping Y field 

Qi = Qi [-1 -1 1 0 1 0 0] 3.207e-09

YSu[0] of region 1 = dimensions      [1 -3 -1 0 0 0 0];

internalField   nonuniform List<scalar> 
100
(
295.63564
295.61008
295.5878
295.56842
295.55154
295.53684
295.52405
295.5129
295.5032
295.49474
295.4874
295.48098
295.47542
295.47055
295.46633
295.46264
295.45944
295.45664
295.45421
295.45209
295.45024
295.44863
295.44723
295.44602
295.44495
295.44403
295.44322
295.44252
295.44191
295.44138
295.44091
295.44051
295.44015
295.43985
295.43958
295.43935
295.43915
295.43897
295.43882
295.43869
295.43857
295.43847
295.43838
295.43831
295.43824
295.43818
295.43813
295.43809
295.43805
295.43801
295.43799
295.43796
295.43794
295.43792
295.4379
295.43789
295.43788
295.43787
295.43786
295.43785
295.43784
295.43784
295.43783
295.43783
295.43783
295.43782
295.43782
295.43782
295.43782
295.43782
295.43782
295.43782
295.43782
295.43782
295.43783
295.43783
295.43784
295.43784
295.43785
295.43786
295.43787
295.43788
295.43789
295.43791
295.43792
295.43794
295.43797
295.43799
295.43802
295.43806
295.4381
295.43815
295.4382
295.43826
295.43833
295.43841
295.4385
295.43861
295.43873
295.44006
)
;

boundaryField
{
    inlet
    {
        type            calculated;
        value           uniform 0;
    }
    outlet
    {
        type            calculated;
        value           uniform 0;
    }
    wall
    {
        type            empty;
    }
    upAndDown
    {
        type            empty;
    }
}


YSp[0] of region 1 = dimensions      [1 -3 -1 0 0 0 0];

internalField   nonuniform List<scalar> 
100
(
57.325265
57.325094
57.324953
57.324818
57.32471
57.324611
57.324527
57.324453
57.324387
57.324333
57.32428
57.324241
57.324199
57.32417
57.324138
57.324117
57.324091
57.324075
57.324056
57.324044
57.324029
57.32402
57.324009
57.324002
57.323994
57.323988
57.323982
57.323978
57.323974
57.32397
57.323968
57.323964
57.323963
57.32396
57.323959
57.323957
57.323957
57.323954
57.323955
57.323952
57.323953
57.323951
57.323952
57.32395
57.323951
57.323949
57.32395
57.323949
57.32395
57.323948
57.323949
57.323948
57.323949
57.323948
57.323949
57.323948
57.323949
57.323947
57.323948
57.323947
57.323948
57.323947
57.323948
57.323947
57.323948
57.323947
57.323948
57.323947
57.323948
57.323947
57.323948
57.323947
57.323948
57.323948
57.323948
57.323948
57.323948
57.323948
57.323948
57.323948
57.323948
57.323948
57.323948
57.323949
57.323948
57.323949
57.323948
57.323949
57.323948
57.323949
57.323948
57.32395
57.323949
57.32395
57.32395
57.323951
57.323951
57.32395
57.323951
57.323971
)
;

boundaryField
{
    inlet
    {
        type            calculated;
        value           uniform 57.323971;
    }
    outlet
    {
        type            calculated;
        value           uniform 57.325324;
    }
    wall
    {
        type            empty;
    }
    upAndDown
    {
        type            empty;
    }
}


Solving YEqn 
DILUPBiCGStab:  Solving for CO2, Initial residual = 0.95018576, Final residual = 2.1738915e-16, No Iterations 1

YEqn solved 

Solving for region number 1 (tubes)
& Species number 1

Mapping Y field 

Qi = Qi [-1 -1 1 0 1 0 0] 1.33e-10

YSu[1] of region 1 = dimensions      [1 -3 -1 0 0 0 0];

internalField   nonuniform List<scalar> 
100
(
40.33303
40.329524
40.326468
40.323809
40.321494
40.319477
40.317722
40.316192
40.314863
40.313702
40.312695
40.311814
40.311051
40.310383
40.309804
40.309297
40.308858
40.308474
40.308141
40.30785
40.307597
40.307376
40.307184
40.307017
40.306871
40.306745
40.306633
40.306538
40.306453
40.306381
40.306317
40.306262
40.306213
40.306172
40.306134
40.306103
40.306075
40.306051
40.30603
40.306012
40.305996
40.305982
40.30597
40.305959
40.30595
40.305942
40.305935
40.305929
40.305924
40.305919
40.305916
40.305912
40.305909
40.305906
40.305904
40.305902
40.305901
40.305899
40.305898
40.305897
40.305896
40.305895
40.305895
40.305894
40.305894
40.305893
40.305893
40.305893
40.305893
40.305893
40.305893
40.305893
40.305893
40.305893
40.305894
40.305894
40.305895
40.305896
40.305897
40.305898
40.305899
40.305901
40.305902
40.305905
40.305907
40.30591
40.305913
40.305916
40.30592
40.305925
40.305931
40.305937
40.305945
40.305953
40.305963
40.305974
40.305986
40.306001
40.306017
40.306012
)
;

boundaryField
{
    inlet
    {
        type            calculated;
        value           uniform 0;
    }
    outlet
    {
        type            calculated;
        value           uniform 0;
    }
    wall
    {
        type            empty;
    }
    upAndDown
    {
        type            empty;
    }
}


YSp[1] of region 1 = dimensions      [1 -3 -1 0 0 0 0];

internalField   nonuniform List<scalar> 
100
(
2.3773808
2.3773737
2.3773679
2.3773623
2.3773578
2.3773537
2.3773502
2.3773471
2.3773444
2.3773422
2.37734
2.3773383
2.3773366
2.3773354
2.3773341
2.3773332
2.3773321
2.3773315
2.3773307
2.3773302
2.3773295
2.3773292
2.3773287
2.3773284
2.3773281
2.3773279
2.3773276
2.3773274
2.3773273
2.3773271
2.377327
2.3773269
2.3773268
2.3773267
2.3773267
2.3773265
2.3773265
2.3773264
2.3773265
2.3773264
2.3773264
2.3773263
2.3773263
2.3773263
2.3773263
2.3773262
2.3773263
2.3773262
2.3773263
2.3773262
2.3773262
2.3773262
2.3773262
2.3773262
2.3773262
2.3773262
2.3773262
2.3773262
2.3773262
2.3773262
2.3773262
2.3773262
2.3773262
2.3773262
2.3773262
2.3773262
2.3773262
2.3773262
2.3773262
2.3773262
2.3773262
2.3773262
2.3773262
2.3773262
2.3773262
2.3773262
2.3773262
2.3773262
2.3773262
2.3773262
2.3773262
2.3773262
2.3773262
2.3773262
2.3773262
2.3773262
2.3773262
2.3773262
2.3773262
2.3773262
2.3773262
2.3773263
2.3773262
2.3773263
2.3773263
2.3773263
2.3773263
2.3773263
2.3773263
2.3773271
)
;

boundaryField
{
    inlet
    {
        type            calculated;
        value           uniform 2.3773271;
    }
    outlet
    {
        type            calculated;
        value           uniform 2.3773832;
    }
    wall
    {
        type            empty;
    }
    upAndDown
    {
        type            empty;
    }
}


Solving YEqn 
DILUPBiCGStab:  Solving for CH4, Initial residual = 0.91671562, Final residual = 7.9477251e-17, No Iterations 1

YEqn solved 

Solving for region number 1 (tubes)
& Species number 2
DILUPBiCGStab:  Solving for Uz, Initial residual = 0.054200938, Final residual = 3.0971497e-18, No Iterations 1
Min/max T:303 303.02639

Solving for fluid region tubes
GAMG:  Solving for p_rgh, Initial residual = 0.091445044, Final residual = 3.3513243e-09, No Iterations 1
 Smk[1] = dimensions      [1 -3 -1 0 0 0 0];

internalField   nonuniform List<scalar> 
100
(
294.85838
294.82947
294.80427
294.78234
294.76324
294.74661
294.73214
294.71952
294.70856
294.69899
294.69068
294.68342
294.67712
294.67161
294.66684
294.66266
294.65904
294.65587
294.65312
294.65073
294.64864
294.64682
294.64523
294.64386
294.64265
294.64161
294.64069
294.63991
294.63921
294.63861
294.63808
294.63763
294.63723
294.63689
294.63658
294.63632
294.63609
294.63589
294.63572
294.63557
294.63543
294.63532
294.63522
294.63513
294.63506
294.63499
294.63494
294.63489
294.63484
294.63481
294.63477
294.63474
294.63472
294.6347
294.63468
294.63466
294.63465
294.63464
294.63463
294.63462
294.63461
294.6346
294.6346
294.63459
294.63459
294.63459
294.63459
294.63458
294.63458
294.63458
294.63459
294.63459
294.63459
294.63459
294.63459
294.6346
294.6346
294.63461
294.63462
294.63463
294.63464
294.63465
294.63466
294.63468
294.6347
294.63473
294.63475
294.63478
294.63481
294.63486
294.6349
294.63495
294.63501
294.63508
294.63516
294.63525
294.63536
294.63548
294.63561
294.63693
)
;

boundaryField
{
    inlet
    {
        type            calculated;
        value           uniform -41.109145;
    }
    outlet
    {
        type            calculated;
        value           uniform -41.110323;
    }
    wall
    {
        type            empty;
    }
    upAndDown
    {
        type            empty;
    }
}

diagonal:  Solving for rho, Initial residual = 0, Final residual = 0, No Iterations 0
time step continuity errors (tubes): sum local = 1.4885975e-14, global = 4.6008124e-16, cumulative = -1.5234604e-14
[...]

internalField   nonuniform List<scalar> 
100
(
40.408968
40.408827
40.408691
40.40858
40.408479
40.408396
40.408321
40.408256
40.408202
40.408151
40.408111
40.408072
40.408043
40.408013
40.407992
40.407968
40.407953
40.407934
40.407923
40.407909
40.4079
40.407889
40.407883
40.407875
40.40787
40.407864
40.407859
40.407855
40.407852
40.407849
40.407846
40.407844
40.407841
40.40784
40.407838
40.407837
40.407835
40.407835
40.407833
40.407833
40.407831
40.407832
40.40783
40.407831
40.407829
40.40783
40.407829
40.407829
40.407828
40.407829
40.407828
40.407829
40.407828
40.407828
40.407828
40.407828
40.407827
40.407828
40.407827
40.407828
40.407827
40.407828
40.407827
40.407828
40.407827
40.407828
40.407827
40.407828
40.407827
40.407828
40.407827
40.407828
40.407827
40.407828
40.407827
40.407828
40.407827
40.407827
40.407828
40.407827
40.407828
40.407828
40.407828
40.407828
40.407828
40.407828
40.407829
40.407828
40.407829
40.407829
40.40783
40.407829
40.40783
40.40783
40.407831
40.407831
40.407832
40.407831
40.407832
40.407841
)
;

boundaryField
{
    inlet
    {
        type            calculated;
        value           uniform 0;
    }
    outlet
    {
        type            calculated;
        value           uniform 0;
    }
    wall
    {
        type            empty;
    }
    upAndDown
    {
        type            empty;
    }
}


YSp[0] of region 0 = dimensions      [1 -3 -1 0 0 0 0];

internalField   nonuniform List<scalar> 
100
(
1268.3019
1268.1919
1268.0959
1268.0124
1267.9396
1267.8763
1267.8211
1267.7731
1267.7313
1267.6949
1267.6632
1267.6356
1267.6115
1267.5906
1267.5724
1267.5565
1267.5427
1267.5306
1267.5202
1267.511
1267.5031
1267.4961
1267.4901
1267.4849
1267.4803
1267.4763
1267.4728
1267.4698
1267.4672
1267.4649
1267.4629
1267.4612
1267.4596
1267.4583
1267.4572
1267.4562
1267.4553
1267.4545
1267.4539
1267.4533
1267.4528
1267.4524
1267.452
1267.4517
1267.4514
1267.4511
1267.4509
1267.4507
1267.4506
1267.4504
1267.4503
1267.4502
1267.4501
1267.45
1267.4499
1267.4499
1267.4498
1267.4498
1267.4497
1267.4497
1267.4497
1267.4496
1267.4496
1267.4496
1267.4496
1267.4496
1267.4496
1267.4496
1267.4496
1267.4496
1267.4496
1267.4496
1267.4496
1267.4496
1267.4496
1267.4496
1267.4496
1267.4497
1267.4497
1267.4497
1267.4498
1267.4498
1267.4499
1267.4499
1267.45
1267.4501
1267.4502
1267.4503
1267.4504
1267.4506
1267.4508
1267.451
1267.4512
1267.4515
1267.4518
1267.4521
1267.4525
1267.4529
1267.4534
1267.4549
)
;

boundaryField
{
    inlet
    {
        type            calculated;
        value           uniform 1268.2621;
    }
    outlet
    {
        type            calculated;
        value           uniform 1268.3667;
    }
    wall
    {
        type            empty;
    }
    upAndDown
    {
        type            empty;
    }
}


Solving YEqn 
DILUPBiCGStab:  Solving for CO2, Initial residual = 0.045224033, Final residual = 3.6083728e-18, No Iterations 1

YEqn solved 

Solving for region number 0 (shell)
& Species number 1

Mapping Y field 

Qi = Qi [-1 -1 1 0 1 0 0] 1.33e-10

YSu[1] of region 0 = dimensions      [1 -3 -1 0 0 0 0];

internalField   nonuniform List<scalar> 
100
(
0.70131906
0.70131832
0.70131746
0.70131685
0.70131623
0.70131577
0.70131534
0.70131496
0.70131467
0.70131436
0.70131416
0.70131391
0.70131379
0.70131358
0.7013135
0.70131334
0.70131329
0.70131316
0.70131312
0.70131302
0.701313
0.70131292
0.7013129
0.70131284
0.70131282
0.70131278
0.70131276
0.70131274
0.70131272
0.7013127
0.70131268
0.70131268
0.70131265
0.70131265
0.70131263
0.70131264
0.70131261
0.70131262
0.7013126
0.70131261
0.70131259
0.70131261
0.70131258
0.7013126
0.70131258
0.70131259
0.70131257
0.70131259
0.70131257
0.70131259
0.70131257
0.70131258
0.70131257
0.70131258
0.70131257
0.70131258
0.70131257
0.70131258
0.70131257
0.70131258
0.70131257
0.70131258
0.70131257
0.70131258
0.70131257
0.70131258
0.70131257
0.70131258
0.70131257
0.70131258
0.70131257
0.70131258
0.70131257
0.70131257
0.70131257
0.70131257
0.70131257
0.70131257
0.70131257
0.70131257
0.70131258
0.70131257
0.70131258
0.70131257
0.70131258
0.70131257
0.70131259
0.70131257
0.70131259
0.70131258
0.7013126
0.70131258
0.7013126
0.70131259
0.7013126
0.7013126
0.70131261
0.70131258
0.70131258
0.70131262
)
;

boundaryField
{
    inlet
    {
        type            calculated;
        value           uniform 0;
    }
    outlet
    {
        type            calculated;
        value           uniform 0;
    }
    wall
    {
        type            empty;
    }
    upAndDown
    {
        type            empty;
    }
}


YSp[1] of region 0 = dimensions      [1 -3 -1 0 0 0 0];

internalField   nonuniform List<scalar> 
100
(
52.598738
52.594177
52.590196
52.586731
52.583714
52.581087
52.5788
52.576808
52.575074
52.573564
52.572249
52.571104
52.570107
52.569239
52.568483
52.567825
52.567252
52.566752
52.566317
52.565939
52.565609
52.565322
52.565072
52.564854
52.564664
52.564499
52.564355
52.56423
52.564121
52.564026
52.563943
52.563871
52.563808
52.563753
52.563706
52.563664
52.563628
52.563597
52.563569
52.563546
52.563525
52.563507
52.563491
52.563477
52.563465
52.563455
52.563446
52.563438
52.563431
52.563425
52.56342
52.563416
52.563412
52.563408
52.563405
52.563403
52.563401
52.563399
52.563397
52.563396
52.563395
52.563394
52.563393
52.563392
52.563391
52.563391
52.563391
52.56339
52.56339
52.56339
52.56339
52.56339
52.563391
52.563391
52.563392
52.563392
52.563393
52.563394
52.563395
52.563397
52.563399
52.563401
52.563403
52.563406
52.563409
52.563412
52.563416
52.563421
52.563427
52.563433
52.56344
52.563448
52.563458
52.563469
52.563481
52.563495
52.563511
52.56353
52.563551
52.563611
)
;

boundaryField
{
    inlet
    {
        type            calculated;
        value           uniform 52.597088;
    }
    outlet
    {
        type            calculated;
        value           uniform 52.601424;
    }
    wall
    {
        type            empty;
    }
    upAndDown
    {
        type            empty;
    }
}


Solving YEqn 
DILUPBiCGStab:  Solving for CH4, Initial residual = 0.077983791, Final residual = 2.1926274e-17, No Iterations 1

YEqn solved 

Solving for region number 0 (shell)
& Species number 2
DILUPBiCGStab:  Solving for Uz, Initial residual = 0.00094623922, Final residual = 7.8530892e-20, No Iterations 1
Min/max T:302.997 303

Solving for fluid region shell
GAMG:  Solving for p_rgh, Initial residual = 9.8774302e-05, Final residual = 8.3998664e-07, No Iterations 4
 Smk[0] = dimensions      [1 -3 -1 0 0 0 0];

internalField   nonuniform List<scalar> 
100
(
-294.85778
-294.82889
-294.80369
-294.78175
-294.76265
-294.74601
-294.73153
-294.71892
-294.70794
-294.69838
-294.69005
-294.6828
-294.67648
-294.67099
-294.6662
-294.66203
-294.6584
-294.65524
-294.65248
-294.65009
-294.648
-294.64618
-294.6446
-294.64322
-294.64201
-294.64097
-294.64006
-294.63926
-294.63857
-294.63797
-294.63745
-294.63699
-294.63659
-294.63625
-294.63595
-294.63568
-294.63546
-294.63526
-294.63508
-294.63493
-294.6348
-294.63469
-294.63459
-294.6345
-294.63443
-294.63436
-294.6343
-294.63425
-294.63421
-294.63417
-294.63414
-294.63411
-294.63409
-294.63406
-294.63405
-294.63403
-294.63402
-294.634
-294.63399
-294.63398
-294.63398
-294.63397
-294.63396
-294.63396
-294.63396
-294.63395
-294.63395
-294.63395
-294.63395
-294.63395
-294.63395
-294.63395
-294.63395
-294.63395
-294.63396
-294.63396
-294.63397
-294.63397
-294.63398
-294.63399
-294.634
-294.63401
-294.63403
-294.63405
-294.63407
-294.63409
-294.63411
-294.63414
-294.63418
-294.63422
-294.63426
-294.63432
-294.63438
-294.63444
-294.63452
-294.63461
-294.63472
-294.63483
-294.63497
-294.63635
)
;

boundaryField
{
    inlet
    {
        type            calculated;
        value           uniform -336.99666;
    }
    outlet
    {
        type            calculated;
        value           uniform -335.98522;
    }
    wall
    {
        type            empty;
    }
    upAndDown
    {
        type            empty;
    }
}

diagonal:  Solving for rho, Initial residual = 0, Final residual = 0, No Iterations 0
time step continuity errors (shell): sum local = 9.3669886e-10, global = -4.004028e-10, cumulative = 9.8043368e-07
GAMG:  Solving for p_rgh, Initial residual = 8.3252645e-07, Final residual = 7.1761237e-08, No Iterations 2
 Smk[0] = dimensions      [1 -3 -1 0 0 0 0];

internalField   nonuniform List<scalar> 
100
(
-294.85778
-294.82889
-294.80369
-294.78175
-294.76265
-294.74601
-294.73153
-294.71892
-294.70794
-294.69838
-294.69005
-294.6828
-294.67648
-294.67099
-294.6662
-294.66203
-294.6584
-294.65524
-294.65248
-294.65009
-294.648
-294.64618
-294.6446
-294.64322
-294.64201
-294.64097
-294.64006
-294.63926
-294.63857
-294.63797
-294.63745
-294.63699
-294.63659
-294.63625
-294.63595
-294.63568
-294.63546
-294.63526
-294.63508
-294.63493
-294.6348
-294.63469
-294.63459
-294.6345
-294.63443
-294.63436
-294.6343
-294.63425
-294.63421
-294.63417
-294.63414
-294.63411
-294.63409
-294.63406
-294.63405
-294.63403
-294.63402
-294.634
-294.63399
-294.63398
-294.63398
-294.63397
-294.63396
-294.63396
-294.63396
-294.63395
-294.63395
-294.63395
-294.63395
-294.63395
-294.63395
-294.63395
-294.63395
-294.63395
-294.63396
-294.63396
-294.63397
-294.63397
-294.63398
-294.63399
-294.634
-294.63401
-294.63403
-294.63405
-294.63407
-294.63409
-294.63411
-294.63414
-294.63418
-294.63422
-294.63426
-294.63432
-294.63438
-294.63444
-294.63452
-294.63461
-294.63472
-294.63483
-294.63497
-294.63635
)
;

boundaryField
{
    inlet
    {
        type            calculated;
        value           uniform -336.99666;
    }
    outlet
    {
        type            calculated;
        value           uniform -335.98522;
    }
    wall
    {
        type            empty;
    }
    upAndDown
    {
        type            empty;
    }
}

diagonal:  Solving for rho, Initial residual = 0, Final residual = 0, No Iterations 0
time step continuity errors (shell): sum local = 8.0023109e-11, global = -2.7536258e-11, cumulative = 9.8040614e-07

Mapping pressure field 

Solving for region number 1 (tubes)
& Species number 0

Mapping Y field 

Qi = Qi [-1 -1 1 0 1 0 0] 3.207e-09

YSu[0] of region 1 = dimensions      [1 -3 -1 0 0 0 0];

internalField   nonuniform List<scalar> 
100
(
295.6351
295.60955
295.58725
295.56785
295.55095
295.53624
295.52343
295.51228
295.50257
295.49412
295.48676
295.48036
295.47478
295.46992
295.46569
295.46201
295.45881
295.45602
295.45359
295.45148
295.44964
295.44803
295.44664
295.44542
295.44437
295.44345
295.44264
295.44195
295.44134
295.44081
295.44035
295.43995
295.4396
295.43929
295.43903
295.4388
295.4386
295.43842
295.43827
295.43814
295.43802
295.43792
295.43784
295.43776
295.43769
295.43764
295.43759
295.43754
295.4375
295.43747
295.43744
295.43742
295.4374
295.43738
295.43736
295.43735
295.43733
295.43732
295.43731
295.43731
295.4373
295.43729
295.43729
295.43729
295.43728
295.43728
295.43728
295.43728
295.43728
295.43728
295.43728
295.43728
295.43728
295.43728
295.43729
295.43729
295.4373
295.4373
295.43731
295.43732
295.43733
295.43734
295.43735
295.43736
295.43738
295.4374
295.43742
295.43745
295.43748
295.43751
295.43755
295.4376
295.43765
295.43771
295.43777
295.43785
295.43794
295.43805
295.43816
295.43955
)
;

boundaryField
{
    inlet
    {
        type            calculated;
        value           uniform 0;
    }
    outlet
    {
        type            calculated;
        value           uniform 0;
    }
    wall
    {
        type            empty;
    }
    upAndDown
    {
        type            empty;
    }
}


YSp[0] of region 1 = dimensions      [1 -3 -1 0 0 0 0];

internalField   nonuniform List<scalar> 
100
(
57.325274
57.325108
57.324959
57.324828
57.324717
57.32462
57.324535
57.324461
57.324397
57.324341
57.324293
57.32425
57.324214
57.324182
57.324154
57.324129
57.324108
57.32409
57.324074
57.32406
57.324047
57.324037
57.324027
57.324019
57.324012
57.324006
57.324001
57.323996
57.323992
57.323989
57.323986
57.323983
57.323981
57.323979
57.323977
57.323975
57.323974
57.323973
57.323972
57.323971
57.32397
57.32397
57.323969
57.323969
57.323968
57.323968
57.323967
57.323967
57.323967
57.323967
57.323966
57.323966
57.323966
57.323966
57.323966
57.323966
57.323966
57.323966
57.323966
57.323965
57.323965
57.323965
57.323965
57.323965
57.323965
57.323965
57.323965
57.323965
57.323965
57.323965
57.323965
57.323965
57.323965
57.323965
57.323965
57.323965
57.323965
57.323965
57.323965
57.323966
57.323966
57.323966
57.323966
57.323966
57.323966
57.323966
57.323966
57.323966
57.323967
57.323967
57.323967
57.323967
57.323968
57.323968
57.323969
57.323969
57.32397
57.323968
57.323969
57.323984
)
;

boundaryField
{
    inlet
    {
        type            calculated;
        value           uniform 57.323984;
    }
    outlet
    {
        type            calculated;
        value           uniform 57.325335;
    }
    wall
    {
        type            empty;
    }
    upAndDown
    {
        type            empty;
    }
}


Solving YEqn 
DILUPBiCGStab:  Solving for CO2, Initial residual = 0.27254389, Final residual = 2.8884996e-17, No Iterations 1

YEqn solved 

Solving for region number 1 (tubes)
& Species number 1

Mapping Y field 

Qi = Qi [-1 -1 1 0 1 0 0] 1.33e-10

YSu[1] of region 1 = dimensions      [1 -3 -1 0 0 0 0];

internalField   nonuniform List<scalar> 
100
(
40.332956
40.329451
40.326393
40.32373
40.321412
40.319394
40.317637
40.316107
40.314776
40.313616
40.312607
40.311728
40.310963
40.310297
40.309717
40.309212
40.308772
40.308389
40.308056
40.307766
40.307514
40.307294
40.307102
40.306936
40.306791
40.306664
40.306554
40.306459
40.306375
40.306303
40.306239
40.306184
40.306137
40.306095
40.306058
40.306027
40.305999
40.305975
40.305954
40.305936
40.305921
40.305907
40.305895
40.305884
40.305875
40.305867
40.30586
40.305854
40.305849
40.305845
40.305841
40.305837
40.305834
40.305832
40.30583
40.305828
40.305826
40.305824
40.305823
40.305822
40.305821
40.30582
40.30582
40.305819
40.305819
40.305819
40.305818
40.305818
40.305818
40.305818
40.305818
40.305818
40.305819
40.305819
40.305819
40.30582
40.305821
40.305821
40.305822
40.305823
40.305825
40.305826
40.305828
40.30583
40.305832
40.305835
40.305838
40.305842
40.305846
40.30585
40.305856
40.305862
40.305869
40.305877
40.305886
40.305897
40.305909
40.305923
40.30594
40.305941
)
;

boundaryField
{
    inlet
    {
        type            calculated;
        value           uniform 0;
    }
    outlet
    {
        type            calculated;
        value           uniform 0;
    }
    wall
    {
        type            empty;
    }
    upAndDown
    {
        type            empty;
    }
}


YSp[1] of region 1 = dimensions      [1 -3 -1 0 0 0 0];

internalField   nonuniform List<scalar> 
100
(
2.3773812
2.3773743
2.3773681
2.3773627
2.3773581
2.377354
2.3773505
2.3773475
2.3773448
2.3773425
2.3773405
2.3773387
2.3773372
2.3773359
2.3773347
2.3773337
2.3773328
2.3773321
2.3773314
2.3773308
2.3773303
2.3773299
2.3773295
2.3773292
2.3773289
2.3773286
2.3773284
2.3773282
2.377328
2.3773279
2.3773278
2.3773276
2.3773275
2.3773275
2.3773274
2.3773273
2.3773273
2.3773272
2.3773272
2.3773271
2.3773271
2.3773271
2.3773271
2.377327
2.377327
2.377327
2.377327
2.377327
2.377327
2.377327
2.377327
2.3773269
2.3773269
2.3773269
2.3773269
2.3773269
2.3773269
2.3773269
2.3773269
2.3773269
2.3773269
2.3773269
2.3773269
2.3773269
2.3773269
2.3773269
2.3773269
2.3773269
2.3773269
2.3773269
2.3773269
2.3773269
2.3773269
2.3773269
2.3773269
2.3773269
2.3773269
2.3773269
2.3773269
2.3773269
2.3773269
2.3773269
2.3773269
2.3773269
2.3773269
2.3773269
2.3773269
2.377327
2.377327
2.377327
2.377327
2.377327
2.377327
2.377327
2.377327
2.3773271
2.3773271
2.377327
2.3773271
2.3773277
)
;

boundaryField
{
    inlet
    {
        type            calculated;
        value           uniform 2.3773277;
    }
    outlet
    {
        type            calculated;
        value           uniform 2.3773837;
    }
    wall
    {
        type            empty;
    }
    upAndDown
    {
        type            empty;
    }
}


Solving YEqn 
DILUPBiCGStab:  Solving for CH4, Initial residual = 0.12541693, Final residual = 2.5863561e-17, No Iterations 1

YEqn solved 

Solving for region number 1 (tubes)
& Species number 2
DILUPBiCGStab:  Solving for Uz, Initial residual = 0.046811548, Final residual = 3.8629798e-18, No Iterations 1
Min/max T:303 303.02639

Solving for fluid region tubes
GAMG:  Solving for p_rgh, Initial residual = 0.0084609323, Final residual = 1.2770957e-10, No Iterations 1
 Smk[1] = dimensions      [1 -3 -1 0 0 0 0];

internalField   nonuniform List<scalar> 
100
(
294.85777
294.82887
294.80365
294.78169
294.76258
294.74593
294.73144
294.71883
294.70784
294.69828
294.68996
294.68271
294.6764
294.67091
294.66612
294.66196
294.65833
294.65518
294.65243
294.65004
294.64796
294.64614
294.64456
294.64319
294.64199
294.64095
294.64004
294.63925
294.63857
294.63797
294.63745
294.63699
294.6366
294.63625
294.63596
294.63569
294.63547
294.63527
294.6351
294.63495
294.63482
294.6347
294.63461
294.63452
294.63444
294.63438
294.63432
294.63427
294.63423
294.63419
294.63416
294.63413
294.63411
294.63409
294.63407
294.63405
294.63404
294.63403
294.63402
294.63401
294.634
294.63399
294.63399
294.63398
294.63398
294.63398
294.63397
294.63397
294.63397
294.63397
294.63397
294.63397
294.63398
294.63398
294.63398
294.63399
294.63399
294.634
294.63401
294.63402
294.63403
294.63404
294.63405
294.63407
294.63409
294.63411
294.63414
294.63417
294.6342
294.63424
294.63428
294.63433
294.63439
294.63446
294.63454
294.63462
294.63473
294.63484
294.63498
294.63635
)
;

boundaryField
{
    inlet
    {
        type            calculated;
        value           uniform -41.109139;
    }
    outlet
    {
        type            calculated;
        value           uniform -41.110322;
    }
    wall
    {
        type            empty;
    }
    upAndDown
    {
        type            empty;
    }
}

diagonal:  Solving for rho, Initial residual = 0, Final residual = 0, No Iterations 0
time step continuity errors (tubes): sum local = 5.3519657e-16, global = -9.9527784e-17, cumulative = -1.5443048e-14
GAMG:  Solving for p_rgh, Initial residual = 7.9797107e-07, Final residual = 4.5074937e-13, No Iterations 1
 Smk[1] = dimensions      [1 -3 -1 0 0 0 0];

internalField   nonuniform List<scalar> 
100
(
294.85777
294.82887
294.80365
294.78169
294.76258
294.74593
294.73144
294.71883
294.70784
294.69828
294.68996
294.68271
294.6764
294.67091
294.66612
294.66196
294.65833
294.65518
294.65243
294.65004
294.64796
294.64614
294.64456
294.64319
294.64199
294.64095
294.64004
294.63925
294.63857
294.63797
294.63745
294.63699
294.6366
294.63625
294.63596
294.63569
294.63547
294.63527
294.6351
294.63495
294.63482
294.6347
294.63461
294.63452
294.63444
294.63438
294.63432
294.63427
294.63423
294.63419
294.63416
294.63413
294.63411
294.63409
294.63407
294.63405
294.63404
294.63403
294.63402
294.63401
294.634
294.63399
294.63399
294.63398
294.63398
294.63398
294.63397
294.63397
294.63397
294.63397
294.63397
294.63397
294.63398
294.63398
294.63398
294.63399
294.63399
294.634
294.63401
294.63402
294.63403
294.63404
294.63405
294.63407
294.63409
294.63411
294.63414
294.63417
294.6342
294.63424
294.63428
294.63433
294.63439
294.63446
294.63454
294.63462
294.63473
294.63484
294.63498
294.63635
)
;

boundaryField
{
    inlet
    {
        type            calculated;
        value           uniform -41.109139;
    }
    outlet
    {
        type            calculated;
        value           uniform -41.110322;
    }
    wall
    {
        type            empty;
    }
    upAndDown
    {
        type            empty;
    }
}

diagonal:  Solving for rho, Initial residual = 0, Final residual = 0, No Iterations 0
time step continuity errors (tubes): sum local = 1.3332967e-16, global = -9.9527784e-17, cumulative = -1.5542576e-14
ExecutionTime = 0.06 s  ClockTime = 0 s

End

